File E:\SAP2000\Analysis Examples\Example 6-010.$2k was saved on m/d/yy at h:mm:ss
 
TABLE:  "ACTIVE DEGREES OF FREEDOM"
   UX=Yes   UY=Yes   UZ=No   RX=No   RY=No   RZ=Yes
 
TABLE:  "ANALYSIS OPTIONS"
   Solver=Advanced   SolverProc=Auto   Force32Bit=No   StiffCase=None   GeomMod=None   HingeOpt="In Elements"   NumAThreads=0   MaxFileSize=0   NumDThreads=0   NumRThreads=0   UseMMFiles="Program Determined"   AllowDiff=No
 
TABLE:  "AREA SECTION PROPERTIES"
   Section=SSEC1   Material=CONC   MatAngle=0   AreaType=Shell   Type=Shell-Thin   DrillDOF=Yes   Thickness=1   BendThick=1   Color=2   F11Mod=1   F22Mod=1   F12Mod=1   M11Mod=1   M22Mod=1   M12Mod=1   V13Mod=1   V23Mod=1   MMod=1   WMod=1   GUID=689a72af-56a6-446b-8cda-6834f4a323b5
 
TABLE:  "AREA SECTION PROPERTY DESIGN PARAMETERS"
   Section=SSEC1   RebarMat=None   RebarOpt=Default
 
TABLE:  "AREA SECTION PROPERTY - TIME DEPENDENT"
   Section=SSEC1   TypeSize=User   AutoSFSize=1   UserValSize=3.93700787401575
 
TABLE:  "AUTO WAVE 3 - WAVE CHARACTERISTICS - GENERAL"
   WaveChar=Default   WaveType="From Theory"   KinFactor=1   SWaterDepth=1800   WaveHeight=720   WavePeriod=12   WaveTheory=Linear
 
TABLE:  "CABLE SECTION DEFINITIONS"
   CableSect=CAB1   Material=STEEL   Specify=Area   Diameter=1.12837916709551   Area=1   Color=Green   AMod=1   A2Mod=1   A3Mod=1   JMod=1   I2Mod=1   I3Mod=1   MMod=1   WMod=1   GUID=d8e665b6-1236-4c55-8174-affde726eb76
 
TABLE:  "CASE - DIRECT HISTORY 1 - GENERAL"
   Case=NLDHIST1   OutSteps=2185   StepSize=0.02
 
TABLE:  "CASE - DIRECT HISTORY 2 - LOAD ASSIGNMENTS"
   Case=NLDHIST1   LoadType=Accel   LoadName="Accel U1"   Function=XACC   TransAccSF=905.6859   TimeFactor=1   ArrivalTime=0   CoordSys=GLOBAL   Angle=0
   Case=NLDHIST1   LoadType=Accel   LoadName="Accel U2"   Function=YACC   TransAccSF=905.6859   TimeFactor=1   ArrivalTime=0   CoordSys=GLOBAL   Angle=0
 
TABLE:  "CASE - DIRECT HISTORY 3 - VISCOUS PROPORTIONAL DAMPING"
   Case=NLDHIST1   SpecifyType=Direct   MassCoeff=0   StiffCoeff=0.002
 
TABLE:  "CASE - DIRECT HISTORY 4 - INTEGRATION PARAMETERS"
   Case=NLDHIST1   IntMethod=HilberHughesTaylor   Gamma=0.5   Beta=0.25   Alpha=0
 
TABLE:  "CASE - DIRECT HISTORY 5 - NONLINEAR PARAMETERS"
   Case=NLDHIST1   GeoNonLin=None   SolScheme="Iterative Only"   DTMax=0   DTMin=0   MaxIterCS=10   MaxIterNR=10   ItConvTol=0.0001   UseLineSrch=Yes   LSPerIter=20   LSTol=0.1   LSStepFact=1.618
 
TABLE:  "CASE - MODAL 1 - GENERAL"
   Case=RITZ   ModeType=Ritz   MaxNumModes=27   MinNumModes=1
 
TABLE:  "CASE - MODAL 3 - LOAD ASSIGNMENTS - RITZ"
   Case=RITZ   LoadType=Accel   LoadName="Accel UX"   MaxCycles=0   TargetPar=99
   Case=RITZ   LoadType=Accel   LoadName="Accel UY"   MaxCycles=0   TargetPar=99
   Case=RITZ   LoadType=Link   LoadName="All Links"   MaxCycles=0   TargetPar=99
 
TABLE:  "CASE - MODAL HISTORY 1 - GENERAL"
   Case=NLMHIST1   HistoryType=Transient   OutSteps=2185   StepSize=0.02   ConstDamp=0.03
 
TABLE:  "CASE - MODAL HISTORY 2 - LOAD ASSIGNMENTS"
   Case=NLMHIST1   LoadType=Accel   LoadName="Accel U1"   Function=XACC   TransAccSF=905.6859   TimeFactor=1   ArrivalTime=0   CoordSys=GLOBAL   Angle=0
   Case=NLMHIST1   LoadType=Accel   LoadName="Accel U2"   Function=YACC   TransAccSF=905.6859   TimeFactor=1   ArrivalTime=0   CoordSys=GLOBAL   Angle=0
 
TABLE:  "CASE - MODAL HISTORY 5 - DAMPING OVERRIDES"
   Case=NLMHIST1   Mode=1   Damping=0
   Case=NLMHIST1   Mode=2   Damping=0
   Case=NLMHIST1   Mode=3   Damping=0
 
TABLE:  "CASE - MODAL HISTORY 6 - NONLINEAR PARAMETERS"
   Case=NLMHIST1   PeriodStat=0   DTMax=0   DTMin=0   FConvTol=1E-05   EConvTol=1E-05   ForceItMax=100   ForceItMin=2   ConvFactor=1
 
TABLE:  "CONNECTIVITY - LINK"
   Link=1   JointI=101   JointJ=1
   Link=2   JointI=102   JointJ=2
   Link=3   JointI=103   JointJ=3
   Link=4   JointI=104   JointJ=4
   Link=5   JointI=105   JointJ=5
   Link=6   JointI=106   JointJ=6
   Link=7   JointI=107   JointJ=7
   Link=8   JointI=108   JointJ=8
   Link=9   JointI=109   JointJ=9
   Link=10   JointI=110   JointJ=10
   Link=11   JointI=111   JointJ=11
   Link=12   JointI=112   JointJ=12
   Link=13   JointI=113   JointJ=13
   Link=14   JointI=114   JointJ=14
   Link=15   JointI=115   JointJ=15
   Link=16   JointI=116   JointJ=16
   Link=17   JointI=117   JointJ=17
   Link=18   JointI=118   JointJ=18
   Link=19   JointI=119   JointJ=19
   Link=20   JointI=120   JointJ=20
# ... 33 like lines cut
 
TABLE:  "CONSTRAINT DEFINITIONS - BODY"
   Name=BASE   CoordSys=GLOBAL   UX=Yes   UY=Yes   UZ=Yes   RX=Yes   RY=Yes   RZ=Yes
 
TABLE:  "CONSTRAINT DEFINITIONS - DIAPHRAGM"
   Name=1   CoordSys=GLOBAL   Axis=Z   MultiLevel=No
   Name=2   CoordSys=GLOBAL   Axis=Z   MultiLevel=No
   Name=3   CoordSys=GLOBAL   Axis=Z   MultiLevel=No
   Name=4   CoordSys=GLOBAL   Axis=Z   MultiLevel=No
   Name=5   CoordSys=GLOBAL   Axis=Z   MultiLevel=No
   Name=6   CoordSys=GLOBAL   Axis=Z   MultiLevel=No
   Name=7   CoordSys=GLOBAL   Axis=Z   MultiLevel=No
   Name=8   CoordSys=GLOBAL   Axis=Z   MultiLevel=No
 
TABLE:  "COORDINATE SYSTEMS"
   Name=GLOBAL   Type=Cartesian   X=0   Y=0   Z=0   AboutZ=0   AboutY=0   AboutX=0
 
TABLE:  "DATABASE DOCUMENTATION"
 
TABLE:  "DATABASE FORMAT TYPES"
   UnitsCurr=Yes   OverrideE=No
 
TABLE:  "FRAME SECTION PROPERTIES 01 - GENERAL"
   SectionName=FSEC1   Material=STEEL   Shape=Rectangular   t3=18   t2=10   Area=180   TorsConst=3916.67054269751   I33=4860   I22=1500   I23=0   AS2=150   AS3=150   S33Top=540   S33Bot=540   S22Left=300   S22Right=300   Z33=810   Z22=450 _
        R33=5.19615242270663   R22=2.88675134594813   CGOffset3=0   CGOffset2=0   EccV2=0   EccV3=0   Cw=0   Color=Black   FromFile=No   AMod=1   A2Mod=1   A3Mod=1   JMod=1   I2Mod=1   I3Mod=1   MMod=1   WMod=1   GUID=6429da4b-f5e8-4181-ab82-45da37b14583
 
TABLE:  "FRAME SECTION PROPERTIES 13 - TIME DEPENDENT"
   SectionName=FSEC1   TypeSize=Auto   AutoSFSize=1
 
TABLE:  "FUNCTION - PLOT FUNCTIONS"
   PlotFunc="Input Energy"   Type=Energy   Component=Input   Mode=All
   PlotFunc=Joint62X   Type=Joint   ObjectLabel=62   Component=RelDispU1   Mode=All
   PlotFunc=Joint57   Type=Joint   ObjectLabel=57   Component=AbsAccelU1   Mode=All
   PlotFunc=Joint48   Type=Joint   ObjectLabel=48   Component=AbsAccelU1   Mode=All
   PlotFunc=Joint56   Type=Joint   ObjectLabel=56   Component=AbsAccelU1   Mode=All
   PlotFunc=Joint49   Type=Joint   ObjectLabel=49   Component=AbsAccelU2   Mode=All
   PlotFunc=Joint62Y   Type=Joint   ObjectLabel=62   Component=RelDispU2   Mode=All
 
TABLE:  "FUNCTION - RESPONSE SPECTRUM - USER"
   Name=UNIT   Period=0   Accel=1   FuncDamp=0
   Name=UNIT   Period=1   Accel=1
   Name=UBC94S1   Period=0   Accel=1   FuncDamp=0
   Name=UBC94S1   Period=0.15   Accel=2.5
   Name=UBC94S1   Period=0.2   Accel=2.5
   Name=UBC94S1   Period=0.39   Accel=2.5
   Name=UBC94S1   Period=0.45   Accel=2.13
   Name=UBC94S1   Period=0.585   Accel=1.67
   Name=UBC94S1   Period=0.75   Accel=1.3
   Name=UBC94S1   Period=0.915   Accel=1.07
   Name=UBC94S1   Period=1.1   Accel=0.886
   Name=UBC94S1   Period=1.25   Accel=0.78
   Name=UBC94S1   Period=1.5   Accel=0.65
   Name=UBC94S1   Period=1.75   Accel=0.557
   Name=UBC94S1   Period=2   Accel=0.488
   Name=UBC94S1   Period=2.5   Accel=0.39
   Name=UBC94S1   Period=3   Accel=0.325
   Name=UBC94S1   Period=10   Accel=0.098
   Name=UBC94S2   Period=0   Accel=1   FuncDamp=0
   Name=UBC94S2   Period=0.15   Accel=2.5
   Name=UBC94S2   Period=0.2   Accel=2.5
   Name=UBC94S2   Period=0.39   Accel=2.5
   Name=UBC94S2   Period=0.45   Accel=2.5
   Name=UBC94S2   Period=0.585   Accel=2.5
   Name=UBC94S2   Period=0.75   Accel=1.95
   Name=UBC94S2   Period=0.915   Accel=1.6
   Name=UBC94S2   Period=1.1   Accel=1.33
   Name=UBC94S2   Period=1.25   Accel=1.17
   Name=UBC94S2   Period=1.5   Accel=0.975
   Name=UBC94S2   Period=1.75   Accel=0.836
   Name=UBC94S2   Period=2   Accel=0.732
   Name=UBC94S2   Period=2.5   Accel=0.585
   Name=UBC94S2   Period=3   Accel=0.488
   Name=UBC94S2   Period=10   Accel=0.146
   Name=UBC94S3   Period=0   Accel=1   FuncDamp=0
   Name=UBC94S3   Period=0.15   Accel=2.5
   Name=UBC94S3   Period=0.2   Accel=2.5
   Name=UBC94S3   Period=0.39   Accel=2.5
   Name=UBC94S3   Period=0.45   Accel=2.5
   Name=UBC94S3   Period=0.585   Accel=2.5
   Name=UBC94S3   Period=0.75   Accel=2.5
   Name=UBC94S3   Period=0.915   Accel=2.5
   Name=UBC94S3   Period=1.1   Accel=2.08
   Name=UBC94S3   Period=1.25   Accel=1.83
   Name=UBC94S3   Period=1.5   Accel=1.53
   Name=UBC94S3   Period=1.75   Accel=1.31
   Name=UBC94S3   Period=2   Accel=1.14
   Name=UBC94S3   Period=2.5   Accel=0.915
   Name=UBC94S3   Period=3   Accel=0.762
   Name=UBC94S3   Period=10   Accel=0.229
 
TABLE:  "FUNCTION - TIME HISTORY - FROM FILE"
   Name=XACC   HeaderLines=0   PrefixChars=0   PtsPerLine=1   DataType="Equal Interval"   FormatType=Free   Interval=0.02   FileName=eq6-010-trans.txt
   Name=YACC   HeaderLines=0   PrefixChars=0   PtsPerLine=1   DataType="Equal Interval"   FormatType=Free   Interval=0.02   FileName=eq6-010-long.txt
 
TABLE:  "FUNCTION - TIME HISTORY - USER"
   Name=RAMP   Time=0   Value=0
   Name=RAMP   Time=1   Value=1
   Name=XACC1   Time=0   Value=0.009
   Name=XACC1   Time=0.02   Value=0.004
   Name=XACC1   Time=0.04   Value=-0.012
   Name=XACC1   Time=0.06   Value=-0.012
   Name=XACC1   Time=0.08   Value=-0.012
   Name=XACC1   Time=0.1   Value=-0.015
   Name=XACC1   Time=0.12   Value=-0.014
   Name=XACC1   Time=0.14   Value=-0.007
   Name=XACC1   Time=0.16   Value=0.002
   Name=XACC1   Time=0.18   Value=0.003
   Name=XACC1   Time=0.2   Value=-0.002
   Name=XACC1   Time=0.22   Value=-0.004
   Name=XACC1   Time=0.24   Value=0
   Name=XACC1   Time=0.26   Value=0.002
   Name=XACC1   Time=0.28   Value=-0.002
   Name=XACC1   Time=0.3   Value=-0.003
   Name=XACC1   Time=0.32   Value=0.003
   Name=XACC1   Time=0.34   Value=0.008
   Name=XACC1   Time=0.36   Value=0.005
   Name=XACC1   Time=0.38   Value=0
# ... 2164 like lines cut
   Name=YACC1   Time=0   Value=0.003
   Name=YACC1   Time=0.02   Value=0.001
   Name=YACC1   Time=0.04   Value=-0.003
   Name=YACC1   Time=0.06   Value=-0.001
   Name=YACC1   Time=0.08   Value=0.001
   Name=YACC1   Time=0.1   Value=-0.002
   Name=YACC1   Time=0.12   Value=0
   Name=YACC1   Time=0.14   Value=0.001
   Name=YACC1   Time=0.16   Value=-0.001
   Name=YACC1   Time=0.18   Value=-0.003
   Name=YACC1   Time=0.2   Value=-0.002
   Name=YACC1   Time=0.22   Value=-0.002
   Name=YACC1   Time=0.24   Value=-0.005
   Name=YACC1   Time=0.26   Value=-0.009
   Name=YACC1   Time=0.28   Value=-0.007
   Name=YACC1   Time=0.3   Value=-0.001
   Name=YACC1   Time=0.32   Value=0.004
   Name=YACC1   Time=0.34   Value=0.007
   Name=YACC1   Time=0.36   Value=0.005
   Name=YACC1   Time=0.38   Value=0
# ... 2164 like lines cut
 
TABLE:  "GENERALIZED DISPLACEMENT DEFINITIONS 1 - TRANSLATIONAL"
   GenDispl=U1L8   Joint=23   U1SF=-1   U2SF=0   U3SF=0   R1SF=0   R2SF=0   R3SF=0
   GenDispl=U1L8   Joint=62   U1SF=1   U2SF=0   U3SF=0   R1SF=0   R2SF=0   R3SF=0
   GenDispl=U2L8   Joint=23   U1SF=0   U2SF=-1   U3SF=0   R1SF=0   R2SF=0   R3SF=0
   GenDispl=U2L8   Joint=62   U1SF=0   U2SF=1   U3SF=0   R1SF=0   R2SF=0   R3SF=0
 
TABLE:  "GENERALIZED DISPLACEMENT DEFINITIONS 2 - ROTATIONAL"
   GenDispl=R3L8   Joint=23   U1SF=0   U2SF=0   U3SF=0   R1SF=0   R2SF=0   R3SF=-1
   GenDispl=R3L8   Joint=62   U1SF=0   U2SF=0   U3SF=0   R1SF=0   R2SF=0   R3SF=1
 
TABLE:  "GRID LINES"
   CoordSys=GLOBAL   AxisDir=X   XRYZCoord=-480   LineType=Primary   LineColor=Gray4   Visible=Yes   BubbleLoc=End   AllVisible=No   BubbleSize=48
   CoordSys=GLOBAL   AxisDir=X   XRYZCoord=0   LineType=Primary   LineColor=Gray4   Visible=Yes   BubbleLoc=End
   CoordSys=GLOBAL   AxisDir=X   XRYZCoord=480   LineType=Primary   LineColor=Gray4   Visible=Yes   BubbleLoc=End
   CoordSys=GLOBAL   AxisDir=Y   XRYZCoord=-960   LineType=Primary   LineColor=Gray4   Visible=Yes   BubbleLoc=End
   CoordSys=GLOBAL   AxisDir=Y   XRYZCoord=0   LineType=Primary   LineColor=Gray4   Visible=Yes   BubbleLoc=End
   CoordSys=GLOBAL   AxisDir=Y   XRYZCoord=960   LineType=Primary   LineColor=Gray4   Visible=Yes   BubbleLoc=End
   CoordSys=GLOBAL   AxisDir=Z   XRYZCoord=0   LineType=Primary   LineColor=Gray4   Visible=Yes   BubbleLoc=End
   CoordSys=GLOBAL   AxisDir=Z   XRYZCoord=1152   LineType=Primary   LineColor=Gray4   Visible=Yes   BubbleLoc=End
 
TABLE:  "GROUPS 1 - DEFINITIONS"
   GroupName=ALL   Selection=Yes   SectionCut=Yes   Steel=Yes   Concrete=Yes   Aluminum=Yes   ColdFormed=Yes   Stage=Yes   Bridge=Yes   AutoSeismic=No   AutoWind=No   SelDesSteel=No   SelDesAlum=No   SelDesCold=No   MassWeight=Yes   Color=Yellow
   GroupName=DBO1   Selection=Yes   SectionCut=Yes   Steel=Yes   Concrete=Yes   Aluminum=Yes   ColdFormed=Yes   Stage=Yes   Bridge=Yes   AutoSeismic=No   AutoWind=No   SelDesSteel=No   SelDesAlum=No   SelDesCold=No   MassWeight=Yes   Color=Gray8Dark
 
TABLE:  "GROUPS 2 - ASSIGNMENTS"
   GroupName=DBO1   ObjectType=Joint   ObjectLabel=57
   GroupName=DBO1   ObjectType=Link   ObjectLabel=23
 
TABLE:  "JOINT ADDED MASS ASSIGNMENTS"
   Joint=46   CoordSys="Joint Local"   Mass1=3.31417   Mass2=3.31417   Mass3=0   MMI1=0   MMI2=0   MMI3=1272642.5
   Joint=47   CoordSys="Joint Local"   Mass1=3.31417   Mass2=3.31417   Mass3=0   MMI1=0   MMI2=0   MMI3=1272642.5
   Joint=48   CoordSys="Joint Local"   Mass1=3.31417   Mass2=3.31417   Mass3=0   MMI1=0   MMI2=0   MMI3=1272642.5
   Joint=49   CoordSys="Joint Local"   Mass1=3.31417   Mass2=3.31417   Mass3=0   MMI1=0   MMI2=0   MMI3=1272642.5
   Joint=50   CoordSys="Joint Local"   Mass1=3.31417   Mass2=3.31417   Mass3=0   MMI1=0   MMI2=0   MMI3=1272642.5
   Joint=51   CoordSys="Joint Local"   Mass1=3.31417   Mass2=3.31417   Mass3=0   MMI1=0   MMI2=0   MMI3=1272642.5
   Joint=52   CoordSys="Joint Local"   Mass1=3.31417   Mass2=3.31417   Mass3=0   MMI1=0   MMI2=0   MMI3=1272642.5
   Joint=53   CoordSys="Joint Local"   Mass1=3.31417   Mass2=3.31417   Mass3=0   MMI1=0   MMI2=0   MMI3=1272642.5
   Joint=54   CoordSys="Joint Local"   Mass1=3.31417   Mass2=3.31417   Mass3=0   MMI1=0   MMI2=0   MMI3=1272642.5
 
TABLE:  "JOINT CONSTRAINT ASSIGNMENTS"
   Joint=1   Constraint=BASE
   Joint=2   Constraint=BASE
   Joint=3   Constraint=BASE
   Joint=4   Constraint=BASE
   Joint=5   Constraint=BASE
   Joint=6   Constraint=BASE
   Joint=7   Constraint=BASE
   Joint=8   Constraint=BASE
   Joint=9   Constraint=BASE
   Joint=10   Constraint=BASE
   Joint=11   Constraint=BASE
   Joint=12   Constraint=BASE
   Joint=13   Constraint=BASE
   Joint=14   Constraint=BASE
   Joint=15   Constraint=BASE
   Joint=16   Constraint=BASE
   Joint=17   Constraint=BASE
   Joint=18   Constraint=BASE
   Joint=19   Constraint=BASE
   Joint=20   Constraint=BASE
# ... 25 like lines cut
   Joint=55   Constraint=1
   Joint=56   Constraint=2
   Joint=57   Constraint=3
   Joint=58   Constraint=4
   Joint=59   Constraint=5
   Joint=60   Constraint=6
   Joint=61   Constraint=7
   Joint=62   Constraint=8
   Joint=46   Constraint=BASE
   Joint=47   Constraint=1
   Joint=48   Constraint=2
   Joint=49   Constraint=3
   Joint=50   Constraint=4
   Joint=51   Constraint=5
   Joint=52   Constraint=6
   Joint=53   Constraint=7
   Joint=54   Constraint=8
 
TABLE:  "JOINT COORDINATES"
   Joint=1   CoordSys=GLOBAL   CoordType=Cartesian   XorR=-480   Y=-960   Z=0   SpecialJt=No
   Joint=2   CoordSys=GLOBAL   CoordType=Cartesian   XorR=-240   Y=-960   Z=0   SpecialJt=No
   Joint=3   CoordSys=GLOBAL   CoordType=Cartesian   XorR=0   Y=-960   Z=0   SpecialJt=No
   Joint=4   CoordSys=GLOBAL   CoordType=Cartesian   XorR=240   Y=-960   Z=0   SpecialJt=No
   Joint=5   CoordSys=GLOBAL   CoordType=Cartesian   XorR=480   Y=-960   Z=0   SpecialJt=No
   Joint=6   CoordSys=GLOBAL   CoordType=Cartesian   XorR=-480   Y=-720   Z=0   SpecialJt=No
   Joint=7   CoordSys=GLOBAL   CoordType=Cartesian   XorR=-240   Y=-720   Z=0   SpecialJt=No
   Joint=8   CoordSys=GLOBAL   CoordType=Cartesian   XorR=0   Y=-720   Z=0   SpecialJt=No
   Joint=9   CoordSys=GLOBAL   CoordType=Cartesian   XorR=240   Y=-720   Z=0   SpecialJt=No
   Joint=10   CoordSys=GLOBAL   CoordType=Cartesian   XorR=480   Y=-720   Z=0   SpecialJt=No
   Joint=11   CoordSys=GLOBAL   CoordType=Cartesian   XorR=-480   Y=-480   Z=0   SpecialJt=No
   Joint=12   CoordSys=GLOBAL   CoordType=Cartesian   XorR=-240   Y=-480   Z=0   SpecialJt=No
   Joint=13   CoordSys=GLOBAL   CoordType=Cartesian   XorR=0   Y=-480   Z=0   SpecialJt=No
   Joint=14   CoordSys=GLOBAL   CoordType=Cartesian   XorR=240   Y=-480   Z=0   SpecialJt=No
   Joint=15   CoordSys=GLOBAL   CoordType=Cartesian   XorR=480   Y=-480   Z=0   SpecialJt=No
   Joint=16   CoordSys=GLOBAL   CoordType=Cartesian   XorR=-480   Y=-240   Z=0   SpecialJt=No
   Joint=17   CoordSys=GLOBAL   CoordType=Cartesian   XorR=-240   Y=-240   Z=0   SpecialJt=No
   Joint=18   CoordSys=GLOBAL   CoordType=Cartesian   XorR=0   Y=-240   Z=0   SpecialJt=No
   Joint=19   CoordSys=GLOBAL   CoordType=Cartesian   XorR=240   Y=-240   Z=0   SpecialJt=No
   Joint=20   CoordSys=GLOBAL   CoordType=Cartesian   XorR=480   Y=-240   Z=0   SpecialJt=No
# ... 25 like lines cut
   Joint=46   CoordSys=GLOBAL   CoordType=Cartesian   XorR=0   Y=96   Z=0   SpecialJt=Yes
   Joint=47   CoordSys=GLOBAL   CoordType=Cartesian   XorR=0   Y=96   Z=144   SpecialJt=Yes
   Joint=48   CoordSys=GLOBAL   CoordType=Cartesian   XorR=0   Y=96   Z=288   SpecialJt=Yes
   Joint=49   CoordSys=GLOBAL   CoordType=Cartesian   XorR=0   Y=96   Z=432   SpecialJt=Yes
   Joint=50   CoordSys=GLOBAL   CoordType=Cartesian   XorR=0   Y=96   Z=576   SpecialJt=Yes
   Joint=51   CoordSys=GLOBAL   CoordType=Cartesian   XorR=0   Y=96   Z=720   SpecialJt=Yes
   Joint=52   CoordSys=GLOBAL   CoordType=Cartesian   XorR=0   Y=96   Z=864   SpecialJt=Yes
   Joint=53   CoordSys=GLOBAL   CoordType=Cartesian   XorR=0   Y=96   Z=1008   SpecialJt=Yes
   Joint=54   CoordSys=GLOBAL   CoordType=Cartesian   XorR=0   Y=96   Z=1152   SpecialJt=Yes
   Joint=55   CoordSys=GLOBAL   CoordType=Cartesian   XorR=0   Y=0   Z=144   SpecialJt=No
   Joint=56   CoordSys=GLOBAL   CoordType=Cartesian   XorR=0   Y=0   Z=288   SpecialJt=No
   Joint=57   CoordSys=GLOBAL   CoordType=Cartesian   XorR=0   Y=0   Z=432   SpecialJt=No
   Joint=58   CoordSys=GLOBAL   CoordType=Cartesian   XorR=0   Y=0   Z=576   SpecialJt=No
   Joint=59   CoordSys=GLOBAL   CoordType=Cartesian   XorR=0   Y=0   Z=720   SpecialJt=No
   Joint=60   CoordSys=GLOBAL   CoordType=Cartesian   XorR=0   Y=0   Z=864   SpecialJt=No
   Joint=61   CoordSys=GLOBAL   CoordType=Cartesian   XorR=0   Y=0   Z=1008   SpecialJt=No
   Joint=62   CoordSys=GLOBAL   CoordType=Cartesian   XorR=0   Y=0   Z=1152   SpecialJt=No
   Joint=101   CoordSys=GLOBAL   CoordType=Cartesian   XorR=-480   Y=-960   Z=0   SpecialJt=No
   Joint=102   CoordSys=GLOBAL   CoordType=Cartesian   XorR=-240   Y=-960   Z=0   SpecialJt=No
   Joint=103   CoordSys=GLOBAL   CoordType=Cartesian   XorR=0   Y=-960   Z=0   SpecialJt=No
   Joint=104   CoordSys=GLOBAL   CoordType=Cartesian   XorR=240   Y=-960   Z=0   SpecialJt=No
   Joint=105   CoordSys=GLOBAL   CoordType=Cartesian   XorR=480   Y=-960   Z=0   SpecialJt=No
   Joint=106   CoordSys=GLOBAL   CoordType=Cartesian   XorR=-480   Y=-720   Z=0   SpecialJt=No
   Joint=107   CoordSys=GLOBAL   CoordType=Cartesian   XorR=-240   Y=-720   Z=0   SpecialJt=No
   Joint=108   CoordSys=GLOBAL   CoordType=Cartesian   XorR=0   Y=-720   Z=0   SpecialJt=No
   Joint=109   CoordSys=GLOBAL   CoordType=Cartesian   XorR=240   Y=-720   Z=0   SpecialJt=No
   Joint=110   CoordSys=GLOBAL   CoordType=Cartesian   XorR=480   Y=-720   Z=0   SpecialJt=No
   Joint=111   CoordSys=GLOBAL   CoordType=Cartesian   XorR=-480   Y=-480   Z=0   SpecialJt=No
   Joint=112   CoordSys=GLOBAL   CoordType=Cartesian   XorR=-240   Y=-480   Z=0   SpecialJt=No
# ... 33 like lines cut
 
TABLE:  "JOINT PATTERN DEFINITIONS"
   Pattern=DEFAULT
 
TABLE:  "JOINT RESTRAINT ASSIGNMENTS"
   Joint=101   U1=Yes   U2=Yes   U3=Yes   R1=Yes   R2=Yes   R3=Yes
   Joint=102   U1=Yes   U2=Yes   U3=Yes   R1=Yes   R2=Yes   R3=Yes
   Joint=103   U1=Yes   U2=Yes   U3=Yes   R1=Yes   R2=Yes   R3=Yes
   Joint=104   U1=Yes   U2=Yes   U3=Yes   R1=Yes   R2=Yes   R3=Yes
   Joint=105   U1=Yes   U2=Yes   U3=Yes   R1=Yes   R2=Yes   R3=Yes
   Joint=106   U1=Yes   U2=Yes   U3=Yes   R1=Yes   R2=Yes   R3=Yes
   Joint=107   U1=Yes   U2=Yes   U3=Yes   R1=Yes   R2=Yes   R3=Yes
   Joint=108   U1=Yes   U2=Yes   U3=Yes   R1=Yes   R2=Yes   R3=Yes
   Joint=109   U1=Yes   U2=Yes   U3=Yes   R1=Yes   R2=Yes   R3=Yes
   Joint=110   U1=Yes   U2=Yes   U3=Yes   R1=Yes   R2=Yes   R3=Yes
   Joint=111   U1=Yes   U2=Yes   U3=Yes   R1=Yes   R2=Yes   R3=Yes
   Joint=112   U1=Yes   U2=Yes   U3=Yes   R1=Yes   R2=Yes   R3=Yes
   Joint=113   U1=Yes   U2=Yes   U3=Yes   R1=Yes   R2=Yes   R3=Yes
   Joint=114   U1=Yes   U2=Yes   U3=Yes   R1=Yes   R2=Yes   R3=Yes
   Joint=115   U1=Yes   U2=Yes   U3=Yes   R1=Yes   R2=Yes   R3=Yes
   Joint=116   U1=Yes   U2=Yes   U3=Yes   R1=Yes   R2=Yes   R3=Yes
   Joint=117   U1=Yes   U2=Yes   U3=Yes   R1=Yes   R2=Yes   R3=Yes
   Joint=118   U1=Yes   U2=Yes   U3=Yes   R1=Yes   R2=Yes   R3=Yes
   Joint=119   U1=Yes   U2=Yes   U3=Yes   R1=Yes   R2=Yes   R3=Yes
   Joint=120   U1=Yes   U2=Yes   U3=Yes   R1=Yes   R2=Yes   R3=Yes
# ... 25 like lines cut
 
TABLE:  "LINK PROPERTY ASSIGNMENTS"
   Link=1   LinkProp=BILIN   LinkFDProp=None   PropMod=1
   Link=2   LinkProp=BILIN   LinkFDProp=None   PropMod=1
   Link=3   LinkProp=BILIN   LinkFDProp=None   PropMod=1
   Link=4   LinkProp=BILIN   LinkFDProp=None   PropMod=1
   Link=5   LinkProp=BILIN   LinkFDProp=None   PropMod=1
   Link=6   LinkProp=BILIN   LinkFDProp=None   PropMod=1
   Link=7   LinkProp=BILIN   LinkFDProp=None   PropMod=1
   Link=8   LinkProp=BILIN   LinkFDProp=None   PropMod=1
   Link=9   LinkProp=BILIN   LinkFDProp=None   PropMod=1
   Link=10   LinkProp=BILIN   LinkFDProp=None   PropMod=1
   Link=11   LinkProp=BILIN   LinkFDProp=None   PropMod=1
   Link=12   LinkProp=BILIN   LinkFDProp=None   PropMod=1
   Link=13   LinkProp=BILIN   LinkFDProp=None   PropMod=1
   Link=14   LinkProp=BILIN   LinkFDProp=None   PropMod=1
   Link=15   LinkProp=BILIN   LinkFDProp=None   PropMod=1
   Link=16   LinkProp=BILIN   LinkFDProp=None   PropMod=1
   Link=17   LinkProp=BILIN   LinkFDProp=None   PropMod=1
   Link=18   LinkProp=BILIN   LinkFDProp=None   PropMod=1
   Link=19   LinkProp=BILIN   LinkFDProp=None   PropMod=1
   Link=20   LinkProp=BILIN   LinkFDProp=None   PropMod=1
# ... 25 like lines cut
   Link=101   LinkProp=LINST123   LinkFDProp=None   PropMod=1
   Link=102   LinkProp=LINST123   LinkFDProp=None   PropMod=1
   Link=103   LinkProp=LINST123   LinkFDProp=None   PropMod=1
   Link=104   LinkProp=LINST456   LinkFDProp=None   PropMod=1
   Link=105   LinkProp=LINST456   LinkFDProp=None   PropMod=1
   Link=106   LinkProp=LINST456   LinkFDProp=None   PropMod=1
   Link=107   LinkProp=LINST78   LinkFDProp=None   PropMod=1
   Link=108   LinkProp=LINST78   LinkFDProp=None   PropMod=1
 
TABLE:  "LINK PROPERTY DEFINITIONS 01 - GENERAL"
   Link=BILIN   LinkType="Rubber Isolator"   Mass=0.001   Weight=0   RotInert1=0   RotInert2=0   RotInert3=0   DefLength=1   DefArea=1   PDM2I=0   PDM2J=0   PDM3I=0   PDM3J=0   StiffLOpt="Effective from Zero"   StiffDOpt=Initial _
        StiffDFact=1   Color=Green   GUID=9efe9895-d988-4311-9a0d-c42885a70693
   Link=LINST123   LinkType=Linear   Mass=0.001   Weight=0   RotInert1=0   RotInert2=0   RotInert3=0   DefLength=1   DefArea=1   PDM2I=0   PDM2J=0   PDM3I=0   PDM3J=0   StiffDFact=1   Color=Cyan   GUID=9353df70-85ab-4527-8ffd-7e145c2706a0
   Link=LINST456   LinkType=Linear   Mass=0.001   Weight=0   RotInert1=0   RotInert2=0   RotInert3=0   DefLength=1   DefArea=1   PDM2I=0   PDM2J=0   PDM3I=0   PDM3J=0   StiffDFact=1   Color=Red   GUID=49fa9253-b7ec-4760-9085-2785b9a9d213
   Link=LINST78   LinkType=Linear   Mass=0.001   Weight=0   RotInert1=0   RotInert2=0   RotInert3=0   DefLength=1   DefArea=1   PDM2I=0   PDM2J=0   PDM3I=0   PDM3J=0   StiffDFact=1   Color=Magenta   GUID=5561d38b-bb82-467b-b819-f63742e20586
   Link=ST123   LinkType="Damper - Exponential"   Mass=0   Weight=0   RotInert1=0   RotInert2=0   RotInert3=0   DefLength=1   DefArea=1   PDM2I=0   PDM2J=0   PDM3I=0   PDM3J=0   StiffDFact=1   Color=Green   GUID=e4ea8f70-0dad-4a4c-8a82-36a3f2fc0804
   Link=ST456   LinkType="Damper - Exponential"   Mass=0   Weight=0   RotInert1=0   RotInert2=0   RotInert3=0   DefLength=1   DefArea=1   PDM2I=0   PDM2J=0   PDM3I=0   PDM3J=0   StiffDFact=1   Color=Green   GUID=5b256451-d623-435d-afb7-767157bd1e7e
   Link=ST78   LinkType="Damper - Exponential"   Mass=0   Weight=0   RotInert1=0   RotInert2=0   RotInert3=0   DefLength=1   DefArea=1   PDM2I=0   PDM2J=0   PDM3I=0   PDM3J=0   StiffDFact=1   Color=Green   GUID=d0d515cd-43c3-4a5c-8ed6-5d836fab463d
 
TABLE:  "LINK PROPERTY DEFINITIONS 02 - LINEAR"
   Link=LINST123   DOF=U2   Fixed=No   TransKE=3401.8   TransCE=0   DJ=72
   Link=LINST123   DOF=U3   Fixed=No   TransKE=3401.8   TransCE=0   DJ=72
   Link=LINST123   DOF=R1   Fixed=No   RotKE=3995867520   RotCE=0
   Link=LINST456   DOF=U2   Fixed=No   TransKE=2551.3   TransCE=0   DJ=72
   Link=LINST456   DOF=U3   Fixed=No   TransKE=2551.3   TransCE=0   DJ=72
   Link=LINST456   DOF=R1   Fixed=No   RotKE=2996900640   RotCE=0
   Link=LINST78   DOF=U2   Fixed=No   TransKE=1700.9   TransCE=0   DJ=72
   Link=LINST78   DOF=U3   Fixed=No   TransKE=1700.9   TransCE=0   DJ=72
   Link=LINST78   DOF=R1   Fixed=No   RotKE=1997933760   RotCE=0
 
TABLE:  "LINK PROPERTY DEFINITIONS 04 - DAMPER"
   Link=ST123   DOF=U2   Fixed=No   NonLinear=No   TransKE=3401.80004882813   TransCE=0   DJ=72
   Link=ST123   DOF=U3   Fixed=No   NonLinear=No   TransKE=3401.80004882813   TransCE=0   DJ=72
   Link=ST123   DOF=R1   Fixed=No   NonLinear=No   RotKE=3995867648   RotCE=0
   Link=ST456   DOF=U2   Fixed=No   NonLinear=No   TransKE=2551.30004882813   TransCE=0   DJ=72
   Link=ST456   DOF=U3   Fixed=No   NonLinear=No   TransKE=2551.30004882813   TransCE=0   DJ=72
   Link=ST456   DOF=R1   Fixed=No   NonLinear=No   RotKE=2996900608   RotCE=0
   Link=ST78   DOF=U2   Fixed=No   NonLinear=No   TransKE=1700.90002441406   TransCE=0   DJ=72
   Link=ST78   DOF=U3   Fixed=No   NonLinear=No   TransKE=1700.90002441406   TransCE=0   DJ=72
   Link=ST78   DOF=R1   Fixed=No   NonLinear=No   RotKE=1997933824   RotCE=0
 
TABLE:  "LINK PROPERTY DEFINITIONS 07 - RUBBER ISOLATOR"
   Link=BILIN   DOF=U2   Fixed=No   NonLinear=Yes   TransKE=6.55   TransCE=0   DJ=0   TransK=25.6   TransYield=12.8   Ratio=0.1887
   Link=BILIN   DOF=U3   Fixed=No   NonLinear=Yes   TransKE=6.55   TransCE=0   DJ=0   TransK=25.6   TransYield=12.8   Ratio=0.1887
 
TABLE:  "LOAD CASE DEFINITIONS"
   Case=RITZ   Type=LinModal   InitialCond=Zero   DesTypeOpt="Prog Det"   DesignType=Quake   DesActOpt="Prog Det"   DesignAct=Other   AutoType=None   RunCase=Yes   GUID=a5763b2b-6030-4578-95b7-a308b25736f3
   Case=NLMHIST1   Type=NonModHist   InitialCond=Zero   ModalCase=RITZ   DesTypeOpt="Prog Det"   DesignType=Quake   DesActOpt="Prog Det"   DesignAct="Short-Term Composite"   AutoType=None   RunCase=Yes   GUID=7f24bbdf-626a-47b5-8506-b64edbc51ebe
   Case=NLDHIST1   Type=NonDirHist   InitialCond=Zero   DesTypeOpt="Prog Det"   DesignType=Quake   DesActOpt="Prog Det"   DesignAct="Short-Term Composite"   AutoType=None   RunCase=Yes   GUID=b2373dcd-afae-4723-9a31-eb53f4c6a4c8
 
TABLE:  "LOAD PATTERN DEFINITIONS"
   LoadPat=LOAD1   DesignType=Dead   SelfWtMult=1   GUID=a1ad9b1c-79ef-40dd-87af-02e13544c106
 
TABLE:  "MASS SOURCE"
   MassSource=MSSSRC1   Elements=Yes   Masses=Yes   Loads=No   IsDefault=Yes
 
TABLE:  "MATERIAL PROPERTIES 01 - GENERAL"
   Material=A416Gr270   Type=Tendon   SymType=Uniaxial   TempDepend=No   Color=Blue   GUID=477f3715-f705-40fd-9c9e-68547ade8e02   Notes="ASTM A416 Grade 270 added 6/26/2008 8:56:33 PM"
   Material=A615Gr60   Type=Rebar   SymType=Uniaxial   TempDepend=No   Color=Green   GUID=a2f57afe-4757-4192-9117-7df0882bfc29   Notes="ASTM A615 Grade 60 added 9/19/2006 6:00:50 PM"
   Material=CONC   Type=Concrete   SymType=Isotropic   TempDepend=No   Color=Black   GUID=b5ec87f3-68aa-4c80-ad76-4fa6d0020c1a   Notes="Normalweight f'c = 4 ksi added 9/19/2006 6:00:50 PM"
   Material=OTHER   Type=Other   SymType=Isotropic   TempDepend=No   Color=Black   GUID=a9b3207a-b048-4f0a-b272-e41520183dc3   Notes="Material added 9/19/2006 6:00:50 PM"
   Material=STEEL   Type=Steel   SymType=Isotropic   TempDepend=No   Color=Black   GUID=523a79b5-f720-4ba2-8dd7-558c06c67afc   Notes="ASTM A36 added 9/19/2006 6:00:50 PM"
 
TABLE:  "MATERIAL PROPERTIES 02 - BASIC MECHANICAL PROPERTIES"
   Material=A416Gr270   UnitWeight=0.000283564814814815   UnitMass=7.34455290352564E-07   E1=28500   A1=6.5E-06
   Material=A615Gr60   UnitWeight=0.000283564814814815   UnitMass=7.34455290352564E-07   E1=29000   A1=6.5E-06
   Material=CONC   UnitWeight=8.68E-05   UnitMass=2.246377E-07   E1=3600   G12=1500   U12=0.2   A1=5.5E-06
   Material=OTHER   UnitWeight=8.68E-05   UnitMass=2.246377E-07   E1=3600   G12=1500   U12=0.2   A1=5.5E-06
   Material=STEEL   UnitWeight=0.000283   UnitMass=7.324016E-07   E1=29000   G12=11153.8461538462   U12=0.3   A1=6.5E-06
 
TABLE:  "MATERIAL PROPERTIES 03A - STEEL DATA"
   Material=STEEL   Fy=36   Fu=45   EffFy=54   EffFu=49.5   SSCurveOpt="User Defined"   SSHysType=Kinematic   CoupModType="Von Mises"
 
TABLE:  "MATERIAL PROPERTIES 03B - CONCRETE DATA"
   Material=CONC   Fc=4   eFc=4   LtWtConc=No   SSCurveOpt="User Defined"   SSHysType=Kinematic   FAngle=0   DAngle=0   CoupModType="Modified Darwin-Pecknold"
 
TABLE:  "MATERIAL PROPERTIES 03E - REBAR DATA"
   Material=A615Gr60   Fy=60   Fu=90   EffFy=66   EffFu=99   SSCurveOpt=Simple   SSHysType=Kinematic   SHard=0.01   SCap=0.09   FinalSlope=-0.1   UseCTDef=No   CoupModType="Von Mises"
 
TABLE:  "MATERIAL PROPERTIES 03F - TENDON DATA"
   Material=A416Gr270   Fy=245.1   Fu=270   SSCurveOpt="270 ksi"   SSHysType=Kinematic   FinalSlope=-0.1   CoupModType="Von Mises"
 
TABLE:  "MATERIAL PROPERTIES 03G - OTHER DATA"
   Material=OTHER   SSHysType=Elastic   FAngle=0   DAngle=0   CoupModType=None
 
TABLE:  "MATERIAL PROPERTIES 03J - COUPLED NONLINEAR VON MISES DATA"
   Material=A416Gr270   YieldStress=245.1   LinIsoHard=No   LinKinHard=No   NLIsoSaHard=No
   Material=A615Gr60   YieldStress=66   LinIsoHard=No   LinKinHard=No   NLIsoSaHard=No
   Material=STEEL   YieldStress=54   LinIsoHard=No   LinKinHard=No   NLIsoSaHard=No
 
TABLE:  "MATERIAL PROPERTIES 04 - USER STRESS-STRAIN CURVES"
   Material=CONC   Strain=-5.55555555555556E-05   Stress=0   PointID=-E
   Material=CONC   Strain=-3.88888888888889E-05   Stress=-120   PointID=-D
   Material=CONC   Strain=-2.22222222222222E-05   Stress=-240   PointID=-C
   Material=CONC   Strain=-2.29885057471264E-06   Stress=-240   PointID=-B
   Material=CONC   Strain=0   Stress=0   PointID=A
   Material=CONC   Strain=2.29885057471264E-06   Stress=240   PointID=B
   Material=CONC   Strain=2.22222222222222E-05   Stress=240
   Material=CONC   Strain=5.55555555555556E-05   Stress=300   PointID=C
   Material=CONC   Strain=8.88888888888889E-05   Stress=300   PointID=D
   Material=CONC   Strain=0.000111111111111111   Stress=240   PointID=E
   Material=OTHER   Strain=-0.000277777777777778   Stress=-1
   Material=OTHER   Strain=0   Stress=0   PointID=A
   Material=OTHER   Strain=0.000277777777777778   Stress=1
   Material=STEEL   Strain=-6.20689655172414E-05   Stress=0   PointID=-E
   Material=STEEL   Strain=-4.3448275862069E-05   Stress=-648   PointID=-D
   Material=STEEL   Strain=-2.48275862068966E-05   Stress=-1296   PointID=-C
   Material=STEEL   Strain=-1.5410225921522E-06   Stress=-1296   PointID=-B
   Material=STEEL   Strain=0   Stress=0   PointID=A
   Material=STEEL   Strain=1.5410225921522E-06   Stress=1296   PointID=B
   Material=STEEL   Strain=2.48275862068966E-05   Stress=1296
   Material=STEEL   Strain=6.20689655172414E-05   Stress=2088   PointID=C
   Material=STEEL   Strain=9.93103448275862E-05   Stress=2088   PointID=D
   Material=STEEL   Strain=0.000124137931034483   Stress=1296   PointID=E
 
TABLE:  "MATERIAL PROPERTIES 06 - DAMPING PARAMETERS"
   Material=A416Gr270   ModalRatio=0   VisMass=0   VisStiff=0   HysMass=0   HysStiff=0
   Material=A615Gr60   ModalRatio=0   VisMass=0   VisStiff=0   HysMass=0   HysStiff=0
   Material=CONC   ModalRatio=0   VisMass=0   VisStiff=0   HysMass=0   HysStiff=0
   Material=OTHER   ModalRatio=0   VisMass=0   VisStiff=0   HysMass=0   HysStiff=0
   Material=STEEL   ModalRatio=0   VisMass=0   VisStiff=0   HysMass=0   HysStiff=0
 
TABLE:  "MATERIAL PROPERTIES 09 - ACCEPTANCE CRITERIA"
   Material=A416Gr270   IOTens=0.015   LSTens=0.023   CPTens=0.03   IOComp=-0.015   LSComp=-0.023   CPComp=-0.03
   Material=A615Gr60   IOTens=0.01   LSTens=0.02   CPTens=0.05   IOComp=-0.005   LSComp=-0.01   CPComp=-0.02
   Material=CONC   IOTens=0.01   LSTens=0.02   CPTens=0.05   IOComp=-0.003   LSComp=-0.006   CPComp=-0.015   IgnoreTens=Yes
   Material=OTHER   IOTens=0.01   LSTens=0.02   CPTens=0.05   IOComp=-0.005   LSComp=-0.01   CPComp=-0.02   IgnoreTens=No
   Material=STEEL   IOTens=0.01   LSTens=0.02   CPTens=0.05   IOComp=-0.005   LSComp=-0.01   CPComp=-0.02
 
TABLE:  "NAMED SETS - DATABASE TABLES 1 - GENERAL"
   DBNamedSet=DBO1   SortOrder="Elem, Cases"   Unformatted=Yes   ModeStart=1   ModeEnd=All   ModalHist=Envelopes   DirectHist=Envelopes   NLStatic=StepByStep   BaseReacX=0   BaseReacY=0   BaseReacZ=0   Combo=Envelopes   Steady=Frequencies _
        SteadyOpt=Magnitude   PSD=RMS   Multistep=Envelopes
 
TABLE:  "NAMED SETS - DATABASE TABLES 2 - SELECTIONS"
   DBNamedSet=DBO1   SelectType=Table   Selection="Joint Displacements - Generalized"
   DBNamedSet=DBO1   SelectType=Table   Selection="Joint Accelerations - Absolute"
   DBNamedSet=DBO1   SelectType=Table   Selection="Element Forces - Links"
   DBNamedSet=DBO1   SelectType=Table   Selection="Element Deformations - Links"
   DBNamedSet=DBO1   SelectType=Table   Selection="Base Reactions"
   DBNamedSet=DBO1   SelectType=LoadCase   Selection=NLMHIST1
   DBNamedSet=DBO1   SelectType=LoadCase   Selection=NLDHIST1
   DBNamedSet=DBO1   SelectType=GenDispl   Selection=U1L8
   DBNamedSet=DBO1   SelectType=GenDispl   Selection=U2L8
   DBNamedSet=DBO1   SelectType=GenDispl   Selection=R3L8
 
TABLE:  "OPTIONS - COLORS - DISPLAY"
   DeviceType=Screen   Points=Yellow   LinesFrame=Yellow   LinesFrmDL=Yellow   LinesCable=Green   LinesTendon=Green   SpringLinks=Green   Restraints=Green   Releases=Green   Axes=Cyan   Text=Green   ShadowLines=Gray8Dark _
        GuideLines=Gray8Dark   Highlight=Red   Selection=White   AreaFillBot=Red   AreaFillTop=Yellow   AreaFillSd=Red   AreaEdge=DarkRed   SolidF1=Red   SolidF2=Blue   SolidF3=Green   SolidF4=Yellow   SolidF5=White   SolidF6=Cyan _
        SolidEdge=DarkRed   Floor=Gray4   Background=Black   BGLowLeft=Black   BGLowRight=Black   BGUpRight=Black   Darkness=0.5
   DeviceType=Printer   Points=Gray8Dark   LinesFrame=Black   LinesFrmDL=Gray4   LinesCable=Black   LinesTendon=Black   SpringLinks=Gray8Dark   Restraints=Gray8Dark   Releases=Gray4   Axes=Black   Text=Black   ShadowLines=Gray4 _
        GuideLines=Gray4   Highlight=Black   Selection=Black   AreaFillBot=Gray4   AreaFillTop=Gray8Dark   AreaFillSd=Gray4   AreaEdge=Black   SolidF1=Gray1Light   SolidF2=Gray2   SolidF3=Gray3   SolidF4=Gray4   SolidF5=Gray5 _
        SolidF6=Gray6   SolidEdge=Black   Floor=Gray4   Background=White   BGLowLeft=White   BGLowRight=White   BGUpRight=White   Darkness=0.5
   DeviceType="Color Printer"   Points=Yellow   LinesFrame=Blue   LinesFrmDL=7303023   LinesCable=Green   LinesTendon=Green   SpringLinks=Green   Restraints=Green   Releases=Green   Axes=Cyan   Text=Green   ShadowLines=Gray8Dark _
        GuideLines=Gray8Dark   Highlight=Red   Selection=10504778   AreaFillBot=Red   AreaFillTop=Yellow   AreaFillSd=16634568   AreaEdge=DarkRed   SolidF1=Red   SolidF2=Blue   SolidF3=Green   SolidF4=Yellow   SolidF5=White   SolidF6=Cyan _
        SolidEdge=DarkRed   Floor=10461087   Background=White   BGLowLeft=White   BGLowRight=14671839   BGUpRight=White   Darkness=0.5
 
TABLE:  "OPTIONS - COLORS - OUTPUT"
   DeviceType=Screen   Contour1=13107400   Contour2=6553828   Contour3=Red   Contour4=16639   Contour5=Orange   Contour6=43775   Contour7=54527   Contour8=Yellow   Contour9=65408   Contour10=Green   Contour11=8453888   Contour12=Cyan _
        Contour13=16755200   Contour14=16733440   Contour15=Blue   Transpare=0.5   Ratio1=Cyan   Ratio2=Green   Ratio3=Yellow   Ratio4=Orange   Ratio5=Red   RatioNotD=Gray4   RatioNotC=Red   RatioVal1=0.5   RatioVal2=0.7   RatioVal3=0.9 _
        RatioVal4=1   DFillPos=Yellow   DFillNeg=Red   DFillRPos=Blue   DFillRNeg=Blue
   DeviceType=Printer   Contour1=Black   Contour2=3158064   Contour3=4210752   Contour4=5263440   Contour5=6316128   Contour6=7368816   Contour7=Gray8Dark   Contour8=Gray7   Contour9=Gray6   Contour10=Gray5   Contour11=Gray4 _
        Contour12=Gray3   Contour13=Gray2   Contour14=Gray1Light   Contour15=White   Transpare=0   Ratio1=Gray2   Ratio2=Gray4   Ratio3=Gray8Dark   Ratio4=4210752   Ratio5=Black   RatioNotD=Gray4   RatioNotC=Black   RatioVal1=0.5 _
        RatioVal2=0.7   RatioVal3=0.9   RatioVal4=1   DFillPos=Gray8Dark   DFillNeg=Gray8Dark   DFillRPos=4210752   DFillRNeg=4210752
   DeviceType="Color Printer"   Contour1=13107400   Contour2=6553828   Contour3=Red   Contour4=16639   Contour5=Orange   Contour6=43775   Contour7=54527   Contour8=Yellow   Contour9=65408   Contour10=Green   Contour11=8453888 _
        Contour12=Cyan   Contour13=16755200   Contour14=16733440   Contour15=Blue   Transpare=0.5   Ratio1=Cyan   Ratio2=Green   Ratio3=Yellow   Ratio4=Orange   Ratio5=Red   RatioNotD=Gray4   RatioNotC=Red   RatioVal1=0.5   RatioVal2=0.7 _
        RatioVal3=0.9   RatioVal4=1   DFillPos=Red   DFillNeg=Red   DFillRPos=Blue   DFillRNeg=Blue
 
TABLE:  "PREFERENCES - ALUMINUM DESIGN - AA 2015"
   THDesign=Envelopes   SRatioLimit=1   Provision=ASD   LatFact=1.33333333333333   UseLatFact=No   Bridge=No   OmegaTy=1.65   OmegaTr=1.95   OmegaC=1.65   OmegaBo=1.65   OmegaBr=1.95   OmegaVo=1.65   OmegaVr=1.95
 
TABLE:  "PREFERENCES - COLD FORMED DESIGN - AISI-ASD96"
   THDesign=Envelopes   FrameType="Moment Frame"   SRatioLimit=1   MaxIter=1   OmegaBS=1.67   OmegaBUS=1.67   OmegaBLTB=1.67   OmegaVS=1.67   OmegaVNS=1.5   OmegaT=1.67   OmegaC=1.8
 
TABLE:  "PREFERENCES - CONCRETE DESIGN - ACI 318-08/IBC2009"
   THDesign=Envelopes   NumCurves=24   NumPoints=11   MinEccen=Yes   PatLLF=0.75   UFLimit=0.95   Rho=1   Sds=0.5   PhiT=0.9   PhiCTied=0.65   PhiCSpiral=0.7   PhiV=0.75   PhiVSeismic=0.6   PhiVJoint=0.85   TanTheta=1
 
TABLE:  "PREFERENCES - CONCRETE SHELL DESIGN - EUROCODE 2-2004"
   Country="CEN Default"   GammaS=1.15   GammaC=1.5   AlphaCC=1   AlphaCT=1   CrackCond="Program Determined"   ShrDesMet="Method 1"   CotTheta=1   AddTenForce=Yes
 
TABLE:  "PREFERENCES - DIMENSIONAL"
   MergeTol=0.1   FineGrid=12   Nudge=12   SelectTol=3   SnapTol=12   SLineThick=1   PLineThick=4   MaxFont=12   MinFont=3   AutoZoom=10   ShrinkFact=70   TextFileLen=240
 
TABLE:  "PREFERENCES - STEEL DESIGN - AISC360-05-IBC2006"
   THDesign=Envelopes   FrameType=SMF   PatLLF=0.75   SRatioLimit=1   MaxIter=1   SDC=E   SeisCode=No   SeisLoad=No   ImpFactor=1   SystemRho=1   SystemSds=0.5   SystemR=8   SystemCd=5.5   Omega0=2.8   Provision=ASD _
        AMethod="Direct Analysis"   SOMethod="General 2nd Order"   SRMethod="Tau-b Fixed"   NLCoeff=0.002   OmegaB=1.67   OmegaC=1.67   OmegaTY=1.67   OmegaTF=2   OmegaV=1.67   OmegaVRolledI=1.5   OmegaVT=1.67   PlugWeld=Yes _
        HSSWelding=ERW   HSSReduceT=No   CheckDefl=No   DLRat=120   SDLAndLLRat=120   LLRat=360   TotalRat=240   NetRat=240
 
TABLE:  "PROGRAM CONTROL"
   ProgramName=SAP2000   Version=25.2.0   CurrUnits="Kip, in, F"   SteelCode=AISC360-05/IBC2006   ConcCode="ACI 318-08/IBC2009"   AlumCode="AA 2015"   ColdCode=AISI-ASD96   RegenHinge=No
 
TABLE:  "PROJECT INFORMATION"
   Item="Company Name"
   Item="Client Name"
   Item="Project Name"
   Item="Project Number"
   Item="Model Name"   Data="8-STORY SEISMIC-ISOLATED BUILDING"
   Item="Model Description"
   Item="Revision Number"
   Item="Frame Type"
   Item=Engineer
   Item=Checker
   Item=Supervisor
   Item="Issue Code"
   Item="Design Code"
 
TABLE:  "REBAR SIZES"
   RebarID=#2   Area=0.05   Diameter=0.25
   RebarID=#3   Area=0.109999999403954   Diameter=0.375
   RebarID=#4   Area=0.200000002980232   Diameter=0.5
   RebarID=#5   Area=0.310000002384186   Diameter=0.625
   RebarID=#6   Area=0.439999997615814   Diameter=0.75
   RebarID=#7   Area=0.600000023841858   Diameter=0.875
   RebarID=#8   Area=0.790000021457672   Diameter=1
   RebarID=#9   Area=1   Diameter=1.12800002098083
   RebarID=#10   Area=1.26999998092651   Diameter=1.26999998092651
   RebarID=#11   Area=1.55999994277954   Diameter=1.4099999666214
   RebarID=#14   Area=2.25   Diameter=1.692999958992
   RebarID=#18   Area=4   Diameter=2.25699996948242
   RebarID=10M   Area=0.155000316452672   Diameter=0.444881903954482
   RebarID=15M   Area=0.310000632905345   Diameter=0.629921269302988
   RebarID=20M   Area=0.465000949358017   Diameter=0.767716546963017
   RebarID=25M   Area=0.775001582263362   Diameter=0.992126029189193
   RebarID=30M   Area=1.08500221516871   Diameter=1.17716535699147
   RebarID=35M   Area=1.55000316452672   Diameter=1.40551186216928
   RebarID=45M   Area=2.32500474679009   Diameter=1.72047249682077
   RebarID=55M   Area=3.87500791131681   Diameter=2.22047253436701
   RebarID=6   Area=0.0438650883735477   Diameter=0.23622047598862
   RebarID=8   Area=0.0779651579931357   Diameter=0.314960634651494
   RebarID=10   Area=0.121675248415348   Diameter=0.393700793314367
   RebarID=12   Area=0.17515035759152   Diameter=0.472440951977241
   RebarID=14   Area=0.238700487337116   Diameter=0.551181110640114
   RebarID=16   Area=0.311550636069872   Diameter=0.629921269302988
   RebarID=20   Area=0.486700993661391   Diameter=0.787401586628735
   RebarID=25   Area=0.761051553782622   Diameter=0.984251983285919
   RebarID=26   Area=0.823051680363691   Diameter=1.02362206261736
   RebarID=28   Area=0.954801949348462   Diameter=1.10236222128023
 
TABLE:  "SOLID PROPERTY DEFINITIONS"
   SolidProp=SOLID1   Material=CONC   MatAngleA=0   MatAngleB=0   MatAngleC=0   InComp=Yes   Color=Magenta   GUID=05fde4f6-5c25-403b-832d-2b78e2a7e682
 
TABLE:  "TABLES AUTOMATICALLY SAVED AFTER ANALYSIS"
   SaveFile=Yes   FileType=XML   FileName="Example 6-010.xml"   NamedSet=DBO1   Group=DBO1
 
TABLE:  "TENDON SECTION DEFINITIONS"
   TendonSect=TEN1   ModelOpt=Loads   PreType="Post Tension"   Material=A416Gr270   Specify=Area   Diameter=1.12837916709551   Area=1   Color=Gray8Dark   AMod=1   A2Mod=1   A3Mod=1   JMod=1   I2Mod=1   I3Mod=1   MMod=1   WMod=1   GUID=653d347a-425d-4198-9ea6-632c07abf7d4
 
END TABLE DATA
