File \\greco-ce-cdot.ist.berkeley.edu\CEE_Students\Users\claudio_perez\Downloads\SAP2000\Analysis Examples\Example 2-012a-thin.$2k was saved on m/d/yy at h:mm:ss
 
TABLE:  "ACTIVE DEGREES OF FREEDOM"
   UX=Yes   UY=Yes   UZ=Yes   RX=Yes   RY=Yes   RZ=Yes
 
TABLE:  "ANALYSIS OPTIONS"
   Solver=Advanced   SolverProc=Auto   Force32Bit=No   StiffCase=None   GeomMod=None   HingeOpt="In Elements"   NumAThreads=0   MaxFileSize=0   NumDThreads=0   NumRThreads=0   UseMMFiles="Program Determined"   AllowDiff=No
 
TABLE:  "AREA SECTION ASSIGNMENTS"
   Area=1   Section=ASEC1   MatProp=Default
   Area=2   Section=ASEC1   MatProp=Default
   Area=3   Section=ASEC1   MatProp=Default
   Area=4   Section=ASEC1   MatProp=Default
   Area=5   Section=ASEC1   MatProp=Default
   Area=6   Section=ASEC1   MatProp=Default
   Area=7   Section=ASEC1   MatProp=Default
   Area=8   Section=ASEC1   MatProp=Default
   Area=9   Section=ASEC1   MatProp=Default
   Area=10   Section=ASEC1   MatProp=Default
   Area=11   Section=ASEC1   MatProp=Default
   Area=12   Section=ASEC1   MatProp=Default
   Area=13   Section=ASEC1   MatProp=Default
   Area=14   Section=ASEC1   MatProp=Default
   Area=15   Section=ASEC1   MatProp=Default
   Area=16   Section=ASEC1   MatProp=Default
   Area=17   Section=ASEC1   MatProp=Default
   Area=18   Section=ASEC1   MatProp=Default
   Area=19   Section=ASEC1   MatProp=Default
   Area=20   Section=ASEC1   MatProp=Default
# ... 556 like lines cut
 
TABLE:  "AREA SECTION PROPERTIES"
   Section=ASEC1   Material=OTHER   MatAngle=0   AreaType=Shell   Type=Shell-Thin   DrillDOF=Yes   Thickness=0.5   BendThick=0.5   Color=Blue   F11Mod=1   F22Mod=1   F12Mod=1   M11Mod=1   M22Mod=1   M12Mod=1   V13Mod=1   V23Mod=1   MMod=1 _
        WMod=1   GUID=778b5452-4f34-427e-bbc1-060db17c565a
 
TABLE:  "AREA SECTION PROPERTY DESIGN PARAMETERS"
   Section=ASEC1   RebarMat=None   RebarOpt=Default
 
TABLE:  "AREA SECTION PROPERTY - TIME DEPENDENT"
   Section=ASEC1   TypeSize=Auto   AutoSFSize=1
 
TABLE:  "AUTO WAVE 3 - WAVE CHARACTERISTICS - GENERAL"
   WaveChar=Default   WaveType="From Theory"   KinFactor=1   SWaterDepth=1800   WaveHeight=720   WavePeriod=12   WaveTheory=Linear
 
TABLE:  "CABLE SECTION DEFINITIONS"
   CableSect=CAB1   Material=STEEL   Specify=Area   Diameter=1.12837916709551   Area=1   Color=Magenta   AMod=1   A2Mod=1   A3Mod=1   JMod=1   I2Mod=1   I3Mod=1   MMod=1   WMod=1   GUID=cad323a3-e28a-4e88-8ac9-87fbd66ef245
 
TABLE:  "CASE - STATIC 1 - LOAD ASSIGNMENTS"
   Case=LineLoad   LoadType="Load pattern"   LoadName=LineLoad   LoadSF=1
 
TABLE:  "CONNECTIVITY - AREA"
   Area=1   Joint1=1   Joint2=97   Joint3=98   Joint4=2
   Area=2   Joint1=2   Joint2=98   Joint3=99   Joint4=3
   Area=3   Joint1=3   Joint2=99   Joint3=100   Joint4=4
   Area=4   Joint1=4   Joint2=100   Joint3=101   Joint4=5
   Area=5   Joint1=5   Joint2=101   Joint3=102   Joint4=6
   Area=6   Joint1=6   Joint2=102   Joint3=103   Joint4=7
   Area=7   Joint1=7   Joint2=103   Joint3=104   Joint4=8
   Area=8   Joint1=8   Joint2=104   Joint3=105   Joint4=9
   Area=9   Joint1=9   Joint2=105   Joint3=106   Joint4=10
   Area=10   Joint1=10   Joint2=106   Joint3=107   Joint4=11
   Area=11   Joint1=11   Joint2=107   Joint3=108   Joint4=12
   Area=12   Joint1=12   Joint2=108   Joint3=109   Joint4=13
   Area=13   Joint1=13   Joint2=109   Joint3=110   Joint4=14
   Area=14   Joint1=14   Joint2=110   Joint3=111   Joint4=15
   Area=15   Joint1=15   Joint2=111   Joint3=112   Joint4=16
   Area=16   Joint1=16   Joint2=112   Joint3=113   Joint4=17
   Area=17   Joint1=17   Joint2=113   Joint3=114   Joint4=18
   Area=18   Joint1=18   Joint2=114   Joint3=115   Joint4=19
   Area=19   Joint1=19   Joint2=115   Joint3=116   Joint4=20
   Area=20   Joint1=20   Joint2=116   Joint3=117   Joint4=21
# ... 556 like lines cut
 
TABLE:  "CONNECTIVITY - FRAME"
   Frame=1   JointI=385   JointJ=386   IsCurved=No   GUID=ae4063e8-f93c-4f10-a4d0-159ce53db89b
   Frame=2   JointI=386   JointJ=387   IsCurved=No   GUID=7b8c323d-7acf-4046-b238-121ddb270360
   Frame=3   JointI=387   JointJ=388   IsCurved=No   GUID=0030e2fe-52d1-45f2-8f25-7a712846544b
   Frame=4   JointI=388   JointJ=389   IsCurved=No   GUID=5c13799a-c43f-46c4-83c9-3a3dae591f56
   Frame=5   JointI=389   JointJ=390   IsCurved=No   GUID=c626be9a-8eb3-487d-8c17-65f3e6bcdfe8
   Frame=6   JointI=390   JointJ=391   IsCurved=No   GUID=f1040e09-4e6a-4b0d-a81b-300730682a2a
   Frame=7   JointI=391   JointJ=392   IsCurved=No   GUID=6f698eb0-e698-44ed-9124-1db343514d70
   Frame=8   JointI=392   JointJ=393   IsCurved=No   GUID=a5e64b65-0ae6-4a84-97da-00eb67455573
   Frame=9   JointI=393   JointJ=394   IsCurved=No   GUID=ab485fe9-15e4-41fd-82cc-79d40e2957c2
   Frame=10   JointI=394   JointJ=395   IsCurved=No   GUID=fbc63ba8-5806-429d-9a92-1aebac87307a
   Frame=11   JointI=395   JointJ=396   IsCurved=No   GUID=6c230e4f-2fcf-4c6e-8d87-c315c21bba71
   Frame=12   JointI=396   JointJ=397   IsCurved=No   GUID=1ef3a42a-4bf3-4336-8194-ae7aae377148
   Frame=13   JointI=397   JointJ=398   IsCurved=No   GUID=c00d3187-262d-4cca-8dee-62bb76856095
   Frame=14   JointI=398   JointJ=399   IsCurved=No   GUID=5fdec50c-6cd2-4898-9636-af90a5c146b0
   Frame=15   JointI=399   JointJ=400   IsCurved=No   GUID=fe459f3e-c79e-425f-8e5a-a9bde5916898
   Frame=16   JointI=400   JointJ=401   IsCurved=No   GUID=98ac586e-7bd8-4229-980d-e564c18aa871
   Frame=17   JointI=401   JointJ=402   IsCurved=No   GUID=0e4a39e6-faa7-4b18-8874-92fdd8770afc
   Frame=18   JointI=402   JointJ=403   IsCurved=No   GUID=674f7539-6832-4418-a661-66f38b340d85
   Frame=19   JointI=403   JointJ=404   IsCurved=No   GUID=280b2552-b40d-4666-ae08-50ccd4a21579
   Frame=20   JointI=404   JointJ=405   IsCurved=No   GUID=926db2f4-4aeb-432b-b422-6cb1d8bedc8f
   Frame=21   JointI=405   JointJ=406   IsCurved=No   GUID=255fd131-c7a5-4370-a7f6-2a04855f97c0
   Frame=22   JointI=406   JointJ=407   IsCurved=No   GUID=66294774-47fc-4989-8675-46d783e29f66
   Frame=23   JointI=407   JointJ=408   IsCurved=No   GUID=7cd30e7c-9f05-48b5-9303-8085a38756c7
   Frame=24   JointI=408   JointJ=409   IsCurved=No   GUID=2fa2a36a-f5f3-449d-9166-dfd4265afaeb
   Frame=25   JointI=409   JointJ=410   IsCurved=No   GUID=745e569d-7895-4508-8c85-870c5761218a
   Frame=26   JointI=410   JointJ=411   IsCurved=No   GUID=63478587-54c9-46d6-9f37-66854049260e
   Frame=27   JointI=411   JointJ=412   IsCurved=No   GUID=c3df861f-28ac-4f6d-bc21-636eaebc947a
   Frame=28   JointI=412   JointJ=413   IsCurved=No   GUID=f22d613a-964a-483d-8bca-cccfa6eec667
   Frame=29   JointI=413   JointJ=414   IsCurved=No   GUID=8587a960-6c0d-42c5-b6f9-bd6143fd5eff
   Frame=30   JointI=414   JointJ=415   IsCurved=No   GUID=6ae172dd-f4b4-4113-b642-d0aef0b032ba
   Frame=31   JointI=415   JointJ=416   IsCurved=No   GUID=cd63e08f-55d4-4e48-85a8-5abe79ccf980
   Frame=32   JointI=416   JointJ=417   IsCurved=No   GUID=5f6c4cb3-d4a2-4417-9a09-01de1af426de
   Frame=33   JointI=417   JointJ=418   IsCurved=No   GUID=56b73725-c21a-4281-913a-936613b6a07e
   Frame=34   JointI=418   JointJ=419   IsCurved=No   GUID=12ba3d23-ed07-47b9-aafb-f0cb1536a532
   Frame=35   JointI=419   JointJ=420   IsCurved=No   GUID=635bf207-3c14-4d95-9975-32d5e6737ba8
   Frame=36   JointI=420   JointJ=421   IsCurved=No   GUID=422cc375-efc2-4e22-a46a-8389366b2df3
   Frame=37   JointI=421   JointJ=422   IsCurved=No   GUID=b8e27253-3170-439d-9b82-157f2419f24d
   Frame=38   JointI=422   JointJ=423   IsCurved=No   GUID=d8e27e97-645b-406d-aadc-c853d9ec690c
   Frame=39   JointI=423   JointJ=424   IsCurved=No   GUID=485fd504-80fe-418f-a7c0-09b87059d916
   Frame=40   JointI=424   JointJ=425   IsCurved=No   GUID=d7331146-f37e-48e4-9446-f91e80f582cb
   Frame=41   JointI=425   JointJ=426   IsCurved=No   GUID=c86602ff-567f-4595-b288-81ba8249f20d
   Frame=42   JointI=426   JointJ=427   IsCurved=No   GUID=b88db5f0-bfb3-4d59-8230-7fc16fdcc4ea
   Frame=43   JointI=427   JointJ=428   IsCurved=No   GUID=c2a2fa86-f465-4826-bed0-3085dd20a091
   Frame=44   JointI=428   JointJ=429   IsCurved=No   GUID=785e5566-3c5c-43f0-8aa2-43bfd18f0a76
   Frame=45   JointI=429   JointJ=430   IsCurved=No   GUID=4c2c0e5b-bdde-4f73-a900-da13148e45ce
   Frame=46   JointI=430   JointJ=431   IsCurved=No   GUID=412f6c42-d99c-41ba-a07a-c4b79286f613
   Frame=47   JointI=431   JointJ=432   IsCurved=No   GUID=6a62a493-7d46-4ffa-86e6-45c216144961
   Frame=48   JointI=432   JointJ=433   IsCurved=No   GUID=e2a29451-30b0-4fff-b8e8-8b45fe918c15
   Frame=49   JointI=433   JointJ=434   IsCurved=No   GUID=5c40bb06-6997-46c9-b24c-dd73e7cb3474
   Frame=50   JointI=434   JointJ=435   IsCurved=No   GUID=f513e1f8-7f17-4b0f-977c-7cf42c13ba35
   Frame=51   JointI=435   JointJ=436   IsCurved=No   GUID=205244e5-81dc-4ff4-af66-65970fc97187
   Frame=52   JointI=436   JointJ=437   IsCurved=No   GUID=2ea6b7bc-a65a-4e2d-8205-f22aca5dcbab
   Frame=53   JointI=437   JointJ=438   IsCurved=No   GUID=81d52b04-7cc1-42da-af5f-cc529d36fff8
   Frame=54   JointI=438   JointJ=439   IsCurved=No   GUID=a4a8000c-9e46-4701-ae62-1899b482a032
   Frame=55   JointI=439   JointJ=440   IsCurved=No   GUID=0855b141-c033-4152-84c4-733653a5c27c
   Frame=56   JointI=440   JointJ=441   IsCurved=No   GUID=ea3a5d0c-7386-4a98-b58e-8d0ebdca027c
   Frame=57   JointI=441   JointJ=442   IsCurved=No   GUID=f72faf55-f804-4259-a41d-7430546b76b9
   Frame=58   JointI=442   JointJ=443   IsCurved=No   GUID=08d64454-bd82-4d30-900d-51ff436d7d20
   Frame=59   JointI=443   JointJ=444   IsCurved=No   GUID=4996a8cd-a56e-40d5-9ce8-1911b8bc58d5
   Frame=60   JointI=444   JointJ=445   IsCurved=No   GUID=e192c0c1-19af-462f-b50a-c1bf86181ed6
   Frame=61   JointI=445   JointJ=446   IsCurved=No   GUID=6069fb75-ec06-4d96-aea8-e41fa8c7e732
   Frame=62   JointI=446   JointJ=447   IsCurved=No   GUID=f6f839d6-d272-42bc-ba18-e5d7a82dead0
   Frame=63   JointI=447   JointJ=448   IsCurved=No   GUID=eab8027a-1b7d-4979-88d8-024a1ae764fc
   Frame=64   JointI=448   JointJ=449   IsCurved=No   GUID=4d58260c-45ef-42cc-862b-d21a8c4b981e
   Frame=65   JointI=449   JointJ=450   IsCurved=No   GUID=a6bd1887-8ddf-4783-957f-1a3d76e40f80
   Frame=66   JointI=450   JointJ=451   IsCurved=No   GUID=d37655d3-e3c7-4580-b6d7-4cbe98e56eae
   Frame=67   JointI=451   JointJ=452   IsCurved=No   GUID=48c8f98f-1043-47f7-b085-033d7c9f7950
   Frame=68   JointI=452   JointJ=453   IsCurved=No   GUID=7693d138-bfda-48c9-918a-e7861887218b
   Frame=69   JointI=453   JointJ=454   IsCurved=No   GUID=4e470885-fbab-48ba-b1e4-6d83edfe04fc
   Frame=70   JointI=454   JointJ=455   IsCurved=No   GUID=4c478835-f81e-4109-998a-bb2689500282
   Frame=71   JointI=455   JointJ=456   IsCurved=No   GUID=77c2afc3-3b54-4874-ba54-85fbfb511a08
   Frame=72   JointI=456   JointJ=457   IsCurved=No   GUID=3b65f510-2a5e-4d3c-96d1-05b1c51c9344
   Frame=73   JointI=457   JointJ=458   IsCurved=No   GUID=92117d02-22cf-49fb-a53d-d61c18536269
   Frame=74   JointI=458   JointJ=459   IsCurved=No   GUID=69531db6-e2f8-43a2-8700-878053b8a0c8
   Frame=75   JointI=459   JointJ=460   IsCurved=No   GUID=a71a20f8-c0be-4915-b52a-8a7d6a4ceca1
   Frame=76   JointI=460   JointJ=461   IsCurved=No   GUID=702173f7-69b3-4dd6-8125-ca6f038ee337
   Frame=77   JointI=461   JointJ=462   IsCurved=No   GUID=af93b7ac-0190-42c3-b4c1-62a2209898d3
   Frame=78   JointI=462   JointJ=463   IsCurved=No   GUID=fb995b3d-1918-4fef-a19a-1699bb0144a2
   Frame=79   JointI=463   JointJ=464   IsCurved=No   GUID=1e21c081-2960-4f59-a33b-6597d7791515
   Frame=80   JointI=464   JointJ=465   IsCurved=No   GUID=461a510a-b713-416c-8f31-a34cc728e806
   Frame=81   JointI=465   JointJ=466   IsCurved=No   GUID=6aee0f0a-c701-490d-b47b-aebf5f34f36a
   Frame=82   JointI=466   JointJ=467   IsCurved=No   GUID=aa51f9ea-64b4-48ec-8f81-2e3206cb3650
   Frame=83   JointI=467   JointJ=468   IsCurved=No   GUID=7dfd71c5-99e5-4343-8783-a3b4d37bb7da
   Frame=84   JointI=468   JointJ=469   IsCurved=No   GUID=a0a3fc9f-2c13-425b-ba88-3707b350c748
   Frame=85   JointI=469   JointJ=470   IsCurved=No   GUID=e39d78b2-a4c8-4d94-93a9-60bf67849b20
   Frame=86   JointI=470   JointJ=471   IsCurved=No   GUID=a13766c2-a80c-46ec-8eaa-8709d08159b1
   Frame=87   JointI=471   JointJ=472   IsCurved=No   GUID=61df94e8-9a32-4ea6-b5bf-eb2a91313ee2
   Frame=88   JointI=472   JointJ=473   IsCurved=No   GUID=ee8dd4dd-973d-4583-8b8c-1eac1a20c6ce
   Frame=89   JointI=473   JointJ=474   IsCurved=No   GUID=22fe0522-966d-41f3-9a6b-85512edb5f9e
   Frame=90   JointI=474   JointJ=475   IsCurved=No   GUID=6a38cc60-b1f1-4b1e-88a5-39020ae83974
   Frame=91   JointI=475   JointJ=476   IsCurved=No   GUID=2d2dd8aa-c2fa-4067-85a7-b8505c2691c9
   Frame=92   JointI=476   JointJ=477   IsCurved=No   GUID=d023d9a0-0961-46af-b418-95125ffafc0f
   Frame=93   JointI=477   JointJ=478   IsCurved=No   GUID=4efd9098-41e4-418d-bdd7-66c6939fa317
   Frame=94   JointI=478   JointJ=479   IsCurved=No   GUID=5797252e-26d4-4ce7-a8ba-afd76ed7dc83
   Frame=95   JointI=479   JointJ=480   IsCurved=No   GUID=983af956-5e59-411a-9b52-6c19262ac1d6
   Frame=96   JointI=480   JointJ=385   IsCurved=No   GUID=867c82a8-8fea-4568-b4dd-75041da5aab8
 
TABLE:  "COORDINATE SYSTEMS"
   Name=GLOBAL   Type=Cylindrical   X=0   Y=0   Z=0   AboutZ=0   AboutY=0   AboutX=0
 
TABLE:  "DATABASE DOCUMENTATION"
 
TABLE:  "DATABASE FORMAT TYPES"
   UnitsCurr=Yes   OverrideE=No
 
TABLE:  "FRAME AUTO MESH ASSIGNMENTS"
   Frame=1   AutoMesh=No   AtJoints=No   AtFrames=No   NumSegments=0   MaxLength=0   MaxDegrees=0
   Frame=2   AutoMesh=No   AtJoints=No   AtFrames=No   NumSegments=0   MaxLength=0   MaxDegrees=0
   Frame=3   AutoMesh=No   AtJoints=No   AtFrames=No   NumSegments=0   MaxLength=0   MaxDegrees=0
   Frame=4   AutoMesh=No   AtJoints=No   AtFrames=No   NumSegments=0   MaxLength=0   MaxDegrees=0
   Frame=5   AutoMesh=No   AtJoints=No   AtFrames=No   NumSegments=0   MaxLength=0   MaxDegrees=0
   Frame=6   AutoMesh=No   AtJoints=No   AtFrames=No   NumSegments=0   MaxLength=0   MaxDegrees=0
   Frame=7   AutoMesh=No   AtJoints=No   AtFrames=No   NumSegments=0   MaxLength=0   MaxDegrees=0
   Frame=8   AutoMesh=No   AtJoints=No   AtFrames=No   NumSegments=0   MaxLength=0   MaxDegrees=0
   Frame=9   AutoMesh=No   AtJoints=No   AtFrames=No   NumSegments=0   MaxLength=0   MaxDegrees=0
   Frame=10   AutoMesh=No   AtJoints=No   AtFrames=No   NumSegments=0   MaxLength=0   MaxDegrees=0
   Frame=11   AutoMesh=No   AtJoints=No   AtFrames=No   NumSegments=0   MaxLength=0   MaxDegrees=0
   Frame=12   AutoMesh=No   AtJoints=No   AtFrames=No   NumSegments=0   MaxLength=0   MaxDegrees=0
   Frame=13   AutoMesh=No   AtJoints=No   AtFrames=No   NumSegments=0   MaxLength=0   MaxDegrees=0
   Frame=14   AutoMesh=No   AtJoints=No   AtFrames=No   NumSegments=0   MaxLength=0   MaxDegrees=0
   Frame=15   AutoMesh=No   AtJoints=No   AtFrames=No   NumSegments=0   MaxLength=0   MaxDegrees=0
   Frame=16   AutoMesh=No   AtJoints=No   AtFrames=No   NumSegments=0   MaxLength=0   MaxDegrees=0
   Frame=17   AutoMesh=No   AtJoints=No   AtFrames=No   NumSegments=0   MaxLength=0   MaxDegrees=0
   Frame=18   AutoMesh=No   AtJoints=No   AtFrames=No   NumSegments=0   MaxLength=0   MaxDegrees=0
   Frame=19   AutoMesh=No   AtJoints=No   AtFrames=No   NumSegments=0   MaxLength=0   MaxDegrees=0
   Frame=20   AutoMesh=No   AtJoints=No   AtFrames=No   NumSegments=0   MaxLength=0   MaxDegrees=0
# ... 76 like lines cut
 
TABLE:  "FRAME DESIGN PROCEDURES"
   Frame=1   DesignProc="From Material"
   Frame=2   DesignProc="From Material"
   Frame=3   DesignProc="From Material"
   Frame=4   DesignProc="From Material"
   Frame=5   DesignProc="From Material"
   Frame=6   DesignProc="From Material"
   Frame=7   DesignProc="From Material"
   Frame=8   DesignProc="From Material"
   Frame=9   DesignProc="From Material"
   Frame=10   DesignProc="From Material"
   Frame=11   DesignProc="From Material"
   Frame=12   DesignProc="From Material"
   Frame=13   DesignProc="From Material"
   Frame=14   DesignProc="From Material"
   Frame=15   DesignProc="From Material"
   Frame=16   DesignProc="From Material"
   Frame=17   DesignProc="From Material"
   Frame=18   DesignProc="From Material"
   Frame=19   DesignProc="From Material"
   Frame=20   DesignProc="From Material"
# ... 76 like lines cut
 
TABLE:  "FRAME INSERTION POINT ASSIGNMENTS"
   Frame=1   CardinalPt="10 (centroid)"   Mirror2=No   Mirror3=No   Transform=No
   Frame=2   CardinalPt="10 (centroid)"   Mirror2=No   Mirror3=No   Transform=No
   Frame=3   CardinalPt="10 (centroid)"   Mirror2=No   Mirror3=No   Transform=No
   Frame=4   CardinalPt="10 (centroid)"   Mirror2=No   Mirror3=No   Transform=No
   Frame=5   CardinalPt="10 (centroid)"   Mirror2=No   Mirror3=No   Transform=No
   Frame=6   CardinalPt="10 (centroid)"   Mirror2=No   Mirror3=No   Transform=No
   Frame=7   CardinalPt="10 (centroid)"   Mirror2=No   Mirror3=No   Transform=No
   Frame=8   CardinalPt="10 (centroid)"   Mirror2=No   Mirror3=No   Transform=No
   Frame=9   CardinalPt="10 (centroid)"   Mirror2=No   Mirror3=No   Transform=No
   Frame=10   CardinalPt="10 (centroid)"   Mirror2=No   Mirror3=No   Transform=No
   Frame=11   CardinalPt="10 (centroid)"   Mirror2=No   Mirror3=No   Transform=No
   Frame=12   CardinalPt="10 (centroid)"   Mirror2=No   Mirror3=No   Transform=No
   Frame=13   CardinalPt="10 (centroid)"   Mirror2=No   Mirror3=No   Transform=No
   Frame=14   CardinalPt="10 (centroid)"   Mirror2=No   Mirror3=No   Transform=No
   Frame=15   CardinalPt="10 (centroid)"   Mirror2=No   Mirror3=No   Transform=No
   Frame=16   CardinalPt="10 (centroid)"   Mirror2=No   Mirror3=No   Transform=No
   Frame=17   CardinalPt="10 (centroid)"   Mirror2=No   Mirror3=No   Transform=No
   Frame=18   CardinalPt="10 (centroid)"   Mirror2=No   Mirror3=No   Transform=No
   Frame=19   CardinalPt="10 (centroid)"   Mirror2=No   Mirror3=No   Transform=No
   Frame=20   CardinalPt="10 (centroid)"   Mirror2=No   Mirror3=No   Transform=No
# ... 76 like lines cut
 
TABLE:  "FRAME LOADS - DISTRIBUTED"
   Frame=1   LoadPat=LineLoad   CoordSys=GLOBAL   Type=Force   Dir=Gravity   DistType=RelDist   RelDistA=0   RelDistB=1   AbsDistA=0   AbsDistB=0.117788698158394   FOverLA=800   FOverLB=800   GUID=89d5885a-6d06-49ad-b8c7-e2ced1bd459d
   Frame=2   LoadPat=LineLoad   CoordSys=GLOBAL   Type=Force   Dir=Gravity   DistType=RelDist   RelDistA=0   RelDistB=1   AbsDistA=0   AbsDistB=0.117788698158394   FOverLA=800   FOverLB=800   GUID=3bad4249-2ac3-4941-86fc-c2433673bc1c
   Frame=3   LoadPat=LineLoad   CoordSys=GLOBAL   Type=Force   Dir=Gravity   DistType=RelDist   RelDistA=0   RelDistB=1   AbsDistA=0   AbsDistB=0.117788698158394   FOverLA=800   FOverLB=800   GUID=d5767272-48c9-46bb-b657-77c2cda826a2
   Frame=4   LoadPat=LineLoad   CoordSys=GLOBAL   Type=Force   Dir=Gravity   DistType=RelDist   RelDistA=0   RelDistB=1   AbsDistA=0   AbsDistB=0.117788698158394   FOverLA=800   FOverLB=800   GUID=265f8282-ef43-490e-91f1-1998506a58bc
   Frame=5   LoadPat=LineLoad   CoordSys=GLOBAL   Type=Force   Dir=Gravity   DistType=RelDist   RelDistA=0   RelDistB=1   AbsDistA=0   AbsDistB=0.117788698158394   FOverLA=800   FOverLB=800   GUID=65ca6d00-2541-4191-8694-5b8cf330e1ef
   Frame=6   LoadPat=LineLoad   CoordSys=GLOBAL   Type=Force   Dir=Gravity   DistType=RelDist   RelDistA=0   RelDistB=1   AbsDistA=0   AbsDistB=0.117788698158394   FOverLA=800   FOverLB=800   GUID=2c45ce26-8be1-4a54-9ac1-46fdd2e57585
   Frame=7   LoadPat=LineLoad   CoordSys=GLOBAL   Type=Force   Dir=Gravity   DistType=RelDist   RelDistA=0   RelDistB=1   AbsDistA=0   AbsDistB=0.117788698158394   FOverLA=800   FOverLB=800   GUID=de8202bd-2e49-41ac-b277-09e8adaaa6b7
   Frame=8   LoadPat=LineLoad   CoordSys=GLOBAL   Type=Force   Dir=Gravity   DistType=RelDist   RelDistA=0   RelDistB=1   AbsDistA=0   AbsDistB=0.117788698158394   FOverLA=800   FOverLB=800   GUID=bdd4653d-0f3f-4551-b955-4b39e8bed5ba
   Frame=9   LoadPat=LineLoad   CoordSys=GLOBAL   Type=Force   Dir=Gravity   DistType=RelDist   RelDistA=0   RelDistB=1   AbsDistA=0   AbsDistB=0.117788698158394   FOverLA=800   FOverLB=800   GUID=b4ad3033-412a-4374-b40a-b2d866ae20f8
   Frame=10   LoadPat=LineLoad   CoordSys=GLOBAL   Type=Force   Dir=Gravity   DistType=RelDist   RelDistA=0   RelDistB=1   AbsDistA=0   AbsDistB=0.117788698158394   FOverLA=800   FOverLB=800   GUID=dbfdb88e-81c8-42e6-8374-d0109860bc18
   Frame=11   LoadPat=LineLoad   CoordSys=GLOBAL   Type=Force   Dir=Gravity   DistType=RelDist   RelDistA=0   RelDistB=1   AbsDistA=0   AbsDistB=0.117788698158394   FOverLA=800   FOverLB=800   GUID=785fc7e5-e2cd-4c74-b373-b2dffcb37925
   Frame=12   LoadPat=LineLoad   CoordSys=GLOBAL   Type=Force   Dir=Gravity   DistType=RelDist   RelDistA=0   RelDistB=1   AbsDistA=0   AbsDistB=0.117788698158394   FOverLA=800   FOverLB=800   GUID=95474640-f318-44dd-8a01-35cbacbe5a9d
   Frame=13   LoadPat=LineLoad   CoordSys=GLOBAL   Type=Force   Dir=Gravity   DistType=RelDist   RelDistA=0   RelDistB=1   AbsDistA=0   AbsDistB=0.117788698158394   FOverLA=800   FOverLB=800   GUID=0428470f-f35b-4f20-a4a8-6af16ad8f220
   Frame=14   LoadPat=LineLoad   CoordSys=GLOBAL   Type=Force   Dir=Gravity   DistType=RelDist   RelDistA=0   RelDistB=1   AbsDistA=0   AbsDistB=0.117788698158394   FOverLA=800   FOverLB=800   GUID=d1e2c044-e7c6-42f1-8b5f-f1057da7cf09
   Frame=15   LoadPat=LineLoad   CoordSys=GLOBAL   Type=Force   Dir=Gravity   DistType=RelDist   RelDistA=0   RelDistB=1   AbsDistA=0   AbsDistB=0.117788698158394   FOverLA=800   FOverLB=800   GUID=aad3ac7b-3cd4-4176-9e06-72f999098b7b
   Frame=16   LoadPat=LineLoad   CoordSys=GLOBAL   Type=Force   Dir=Gravity   DistType=RelDist   RelDistA=0   RelDistB=1   AbsDistA=0   AbsDistB=0.117788698158394   FOverLA=800   FOverLB=800   GUID=3c36265f-e8c9-4396-8599-5e742616c8bc
   Frame=17   LoadPat=LineLoad   CoordSys=GLOBAL   Type=Force   Dir=Gravity   DistType=RelDist   RelDistA=0   RelDistB=1   AbsDistA=0   AbsDistB=0.117788698158394   FOverLA=800   FOverLB=800   GUID=c129648f-cebd-4824-ae93-76d5a7653055
   Frame=18   LoadPat=LineLoad   CoordSys=GLOBAL   Type=Force   Dir=Gravity   DistType=RelDist   RelDistA=0   RelDistB=1   AbsDistA=0   AbsDistB=0.117788698158394   FOverLA=800   FOverLB=800   GUID=31dc1925-0904-49a8-9a7f-786d9a4a3ad2
   Frame=19   LoadPat=LineLoad   CoordSys=GLOBAL   Type=Force   Dir=Gravity   DistType=RelDist   RelDistA=0   RelDistB=1   AbsDistA=0   AbsDistB=0.117788698158394   FOverLA=800   FOverLB=800   GUID=b5135bed-7c69-44a4-8628-6f56f693b985
   Frame=20   LoadPat=LineLoad   CoordSys=GLOBAL   Type=Force   Dir=Gravity   DistType=RelDist   RelDistA=0   RelDistB=1   AbsDistA=0   AbsDistB=0.117788698158394   FOverLA=800   FOverLB=800   GUID=a74f3e64-c82f-46b1-a80d-c2b9b4d5dd32
   Frame=21   LoadPat=LineLoad   CoordSys=GLOBAL   Type=Force   Dir=Gravity   DistType=RelDist   RelDistA=0   RelDistB=1   AbsDistA=0   AbsDistB=0.117788698158394   FOverLA=800   FOverLB=800   GUID=7281d794-3516-441d-9fb2-326ff397f6da
   Frame=22   LoadPat=LineLoad   CoordSys=GLOBAL   Type=Force   Dir=Gravity   DistType=RelDist   RelDistA=0   RelDistB=1   AbsDistA=0   AbsDistB=0.117788698158394   FOverLA=800   FOverLB=800   GUID=a3c2ac9b-d6de-4efd-a349-3d86bc3a1801
   Frame=23   LoadPat=LineLoad   CoordSys=GLOBAL   Type=Force   Dir=Gravity   DistType=RelDist   RelDistA=0   RelDistB=1   AbsDistA=0   AbsDistB=0.117788698158394   FOverLA=800   FOverLB=800   GUID=0b681aeb-5c6f-47c3-9a88-9d2bbee5092a
   Frame=24   LoadPat=LineLoad   CoordSys=GLOBAL   Type=Force   Dir=Gravity   DistType=RelDist   RelDistA=0   RelDistB=1   AbsDistA=0   AbsDistB=0.117788698158394   FOverLA=800   FOverLB=800   GUID=e63b9e19-24c0-4eaa-b1e3-695b7193941f
   Frame=25   LoadPat=LineLoad   CoordSys=GLOBAL   Type=Force   Dir=Gravity   DistType=RelDist   RelDistA=0   RelDistB=1   AbsDistA=0   AbsDistB=0.117788698158394   FOverLA=800   FOverLB=800   GUID=987baf85-4461-4a71-a5fe-777137968f1a
   Frame=26   LoadPat=LineLoad   CoordSys=GLOBAL   Type=Force   Dir=Gravity   DistType=RelDist   RelDistA=0   RelDistB=1   AbsDistA=0   AbsDistB=0.117788698158394   FOverLA=800   FOverLB=800   GUID=1f5dce1c-f266-4936-845e-b09ec1f8c22a
   Frame=27   LoadPat=LineLoad   CoordSys=GLOBAL   Type=Force   Dir=Gravity   DistType=RelDist   RelDistA=0   RelDistB=1   AbsDistA=0   AbsDistB=0.117788698158394   FOverLA=800   FOverLB=800   GUID=af89a9f1-27e2-4698-a386-97ebb8a4379c
   Frame=28   LoadPat=LineLoad   CoordSys=GLOBAL   Type=Force   Dir=Gravity   DistType=RelDist   RelDistA=0   RelDistB=1   AbsDistA=0   AbsDistB=0.117788698158394   FOverLA=800   FOverLB=800   GUID=ada0aa2a-56fe-4d3c-8719-7d67d35f393d
   Frame=29   LoadPat=LineLoad   CoordSys=GLOBAL   Type=Force   Dir=Gravity   DistType=RelDist   RelDistA=0   RelDistB=1   AbsDistA=0   AbsDistB=0.117788698158394   FOverLA=800   FOverLB=800   GUID=666c4540-e07b-46a7-b4ba-a072186a088b
   Frame=30   LoadPat=LineLoad   CoordSys=GLOBAL   Type=Force   Dir=Gravity   DistType=RelDist   RelDistA=0   RelDistB=1   AbsDistA=0   AbsDistB=0.117788698158394   FOverLA=800   FOverLB=800   GUID=84290298-537c-4cb2-9d74-e4c5f892b30c
   Frame=31   LoadPat=LineLoad   CoordSys=GLOBAL   Type=Force   Dir=Gravity   DistType=RelDist   RelDistA=0   RelDistB=1   AbsDistA=0   AbsDistB=0.117788698158394   FOverLA=800   FOverLB=800   GUID=ea1b1cee-16cd-480c-896b-e1c247ac26d2
   Frame=32   LoadPat=LineLoad   CoordSys=GLOBAL   Type=Force   Dir=Gravity   DistType=RelDist   RelDistA=0   RelDistB=1   AbsDistA=0   AbsDistB=0.117788698158394   FOverLA=800   FOverLB=800   GUID=7980056b-b68d-4081-ad6e-1aaac10ae863
   Frame=33   LoadPat=LineLoad   CoordSys=GLOBAL   Type=Force   Dir=Gravity   DistType=RelDist   RelDistA=0   RelDistB=1   AbsDistA=0   AbsDistB=0.117788698158394   FOverLA=800   FOverLB=800   GUID=6d48d27c-38c2-4d25-abcd-e4de6c782715
   Frame=34   LoadPat=LineLoad   CoordSys=GLOBAL   Type=Force   Dir=Gravity   DistType=RelDist   RelDistA=0   RelDistB=1   AbsDistA=0   AbsDistB=0.117788698158395   FOverLA=800   FOverLB=800   GUID=8c557ef7-df8e-45ad-b176-cbe6303faac6
   Frame=35   LoadPat=LineLoad   CoordSys=GLOBAL   Type=Force   Dir=Gravity   DistType=RelDist   RelDistA=0   RelDistB=1   AbsDistA=0   AbsDistB=0.117788698158394   FOverLA=800   FOverLB=800   GUID=aa329d41-4016-40ea-993a-18aea39e7f9a
   Frame=36   LoadPat=LineLoad   CoordSys=GLOBAL   Type=Force   Dir=Gravity   DistType=RelDist   RelDistA=0   RelDistB=1   AbsDistA=0   AbsDistB=0.117788698158394   FOverLA=800   FOverLB=800   GUID=3108c756-9b4f-44fb-807c-bcef1323b695
   Frame=37   LoadPat=LineLoad   CoordSys=GLOBAL   Type=Force   Dir=Gravity   DistType=RelDist   RelDistA=0   RelDistB=1   AbsDistA=0   AbsDistB=0.117788698158394   FOverLA=800   FOverLB=800   GUID=7bd32d19-68e7-4ce7-b79a-95a7ba910ca5
   Frame=38   LoadPat=LineLoad   CoordSys=GLOBAL   Type=Force   Dir=Gravity   DistType=RelDist   RelDistA=0   RelDistB=1   AbsDistA=0   AbsDistB=0.117788698158394   FOverLA=800   FOverLB=800   GUID=824d36dc-7ce7-4bf5-9d2a-c2f859f29937
   Frame=39   LoadPat=LineLoad   CoordSys=GLOBAL   Type=Force   Dir=Gravity   DistType=RelDist   RelDistA=0   RelDistB=1   AbsDistA=0   AbsDistB=0.117788698158395   FOverLA=800   FOverLB=800   GUID=5b524191-a5e3-454a-bc43-8dea76425313
   Frame=40   LoadPat=LineLoad   CoordSys=GLOBAL   Type=Force   Dir=Gravity   DistType=RelDist   RelDistA=0   RelDistB=1   AbsDistA=0   AbsDistB=0.117788698158394   FOverLA=800   FOverLB=800   GUID=4e97f061-671a-4ece-aaa0-7dcf4f06d80b
   Frame=41   LoadPat=LineLoad   CoordSys=GLOBAL   Type=Force   Dir=Gravity   DistType=RelDist   RelDistA=0   RelDistB=1   AbsDistA=0   AbsDistB=0.117788698158394   FOverLA=800   FOverLB=800   GUID=d04aee2d-a3c2-426d-839c-8cdfc76319c2
   Frame=42   LoadPat=LineLoad   CoordSys=GLOBAL   Type=Force   Dir=Gravity   DistType=RelDist   RelDistA=0   RelDistB=1   AbsDistA=0   AbsDistB=0.117788698158394   FOverLA=800   FOverLB=800   GUID=1bc54dbb-d971-46dd-8b52-81bcbbada57a
   Frame=43   LoadPat=LineLoad   CoordSys=GLOBAL   Type=Force   Dir=Gravity   DistType=RelDist   RelDistA=0   RelDistB=1   AbsDistA=0   AbsDistB=0.117788698158394   FOverLA=800   FOverLB=800   GUID=69fcfc6c-0b6c-4958-87c0-70cf86adf57c
   Frame=44   LoadPat=LineLoad   CoordSys=GLOBAL   Type=Force   Dir=Gravity   DistType=RelDist   RelDistA=0   RelDistB=1   AbsDistA=0   AbsDistB=0.117788698158394   FOverLA=800   FOverLB=800   GUID=bd8494a2-2c29-4d64-a2d8-0d833ecd7fae
   Frame=45   LoadPat=LineLoad   CoordSys=GLOBAL   Type=Force   Dir=Gravity   DistType=RelDist   RelDistA=0   RelDistB=1   AbsDistA=0   AbsDistB=0.117788698158394   FOverLA=800   FOverLB=800   GUID=36ba8aa7-7bcd-445b-a49e-0be9c610fbf3
   Frame=46   LoadPat=LineLoad   CoordSys=GLOBAL   Type=Force   Dir=Gravity   DistType=RelDist   RelDistA=0   RelDistB=1   AbsDistA=0   AbsDistB=0.117788698158395   FOverLA=800   FOverLB=800   GUID=d9873aaa-3843-441d-8c2b-845ac03beecb
   Frame=47   LoadPat=LineLoad   CoordSys=GLOBAL   Type=Force   Dir=Gravity   DistType=RelDist   RelDistA=0   RelDistB=1   AbsDistA=0   AbsDistB=0.117788698158394   FOverLA=800   FOverLB=800   GUID=8a330f80-b62b-4faf-8ad4-d4ddcccf9b68
   Frame=48   LoadPat=LineLoad   CoordSys=GLOBAL   Type=Force   Dir=Gravity   DistType=RelDist   RelDistA=0   RelDistB=1   AbsDistA=0   AbsDistB=0.117788698158394   FOverLA=800   FOverLB=800   GUID=018dcf0b-dcdd-452c-99a5-f4b9b21a5504
   Frame=49   LoadPat=LineLoad   CoordSys=GLOBAL   Type=Force   Dir=Gravity   DistType=RelDist   RelDistA=0   RelDistB=1   AbsDistA=0   AbsDistB=0.117788698158394   FOverLA=800   FOverLB=800   GUID=9f775065-39eb-439f-a46f-88d228ce0fb5
   Frame=50   LoadPat=LineLoad   CoordSys=GLOBAL   Type=Force   Dir=Gravity   DistType=RelDist   RelDistA=0   RelDistB=1   AbsDistA=0   AbsDistB=0.117788698158394   FOverLA=800   FOverLB=800   GUID=cc737c2d-4550-4810-87c3-549348f32467
   Frame=51   LoadPat=LineLoad   CoordSys=GLOBAL   Type=Force   Dir=Gravity   DistType=RelDist   RelDistA=0   RelDistB=1   AbsDistA=0   AbsDistB=0.117788698158395   FOverLA=800   FOverLB=800   GUID=8424ba8f-21a7-4dfd-a1fe-63bde5ab61df
   Frame=52   LoadPat=LineLoad   CoordSys=GLOBAL   Type=Force   Dir=Gravity   DistType=RelDist   RelDistA=0   RelDistB=1   AbsDistA=0   AbsDistB=0.117788698158394   FOverLA=800   FOverLB=800   GUID=6110d22b-7118-4317-930d-39b84f68ec20
   Frame=53   LoadPat=LineLoad   CoordSys=GLOBAL   Type=Force   Dir=Gravity   DistType=RelDist   RelDistA=0   RelDistB=1   AbsDistA=0   AbsDistB=0.117788698158394   FOverLA=800   FOverLB=800   GUID=fb687558-f9d3-4903-a744-965735a67a88
   Frame=54   LoadPat=LineLoad   CoordSys=GLOBAL   Type=Force   Dir=Gravity   DistType=RelDist   RelDistA=0   RelDistB=1   AbsDistA=0   AbsDistB=0.117788698158394   FOverLA=800   FOverLB=800   GUID=94b6bb65-1ef9-4f66-90c6-98ff9da79fdb
   Frame=55   LoadPat=LineLoad   CoordSys=GLOBAL   Type=Force   Dir=Gravity   DistType=RelDist   RelDistA=0   RelDistB=1   AbsDistA=0   AbsDistB=0.117788698158394   FOverLA=800   FOverLB=800   GUID=082e2fa2-b736-4964-b63e-4f596923b371
   Frame=56   LoadPat=LineLoad   CoordSys=GLOBAL   Type=Force   Dir=Gravity   DistType=RelDist   RelDistA=0   RelDistB=1   AbsDistA=0   AbsDistB=0.117788698158394   FOverLA=800   FOverLB=800   GUID=ad7e6cbd-1540-469c-a934-882646eb17db
   Frame=57   LoadPat=LineLoad   CoordSys=GLOBAL   Type=Force   Dir=Gravity   DistType=RelDist   RelDistA=0   RelDistB=1   AbsDistA=0   AbsDistB=0.117788698158394   FOverLA=800   FOverLB=800   GUID=45a05a9a-daac-4444-b1b5-1d521013a9a3
   Frame=58   LoadPat=LineLoad   CoordSys=GLOBAL   Type=Force   Dir=Gravity   DistType=RelDist   RelDistA=0   RelDistB=1   AbsDistA=0   AbsDistB=0.117788698158395   FOverLA=800   FOverLB=800   GUID=761e7952-8258-4adb-8636-9ffa8629f381
   Frame=59   LoadPat=LineLoad   CoordSys=GLOBAL   Type=Force   Dir=Gravity   DistType=RelDist   RelDistA=0   RelDistB=1   AbsDistA=0   AbsDistB=0.117788698158394   FOverLA=800   FOverLB=800   GUID=e81dbb66-5ef7-4725-854b-4565a926675f
   Frame=60   LoadPat=LineLoad   CoordSys=GLOBAL   Type=Force   Dir=Gravity   DistType=RelDist   RelDistA=0   RelDistB=1   AbsDistA=0   AbsDistB=0.117788698158394   FOverLA=800   FOverLB=800   GUID=3fe12cb9-613b-44b5-a9d1-5a00367a53b7
   Frame=61   LoadPat=LineLoad   CoordSys=GLOBAL   Type=Force   Dir=Gravity   DistType=RelDist   RelDistA=0   RelDistB=1   AbsDistA=0   AbsDistB=0.117788698158394   FOverLA=800   FOverLB=800   GUID=aed99cfe-2810-4b0f-8c1a-b680e4d93914
   Frame=62   LoadPat=LineLoad   CoordSys=GLOBAL   Type=Force   Dir=Gravity   DistType=RelDist   RelDistA=0   RelDistB=1   AbsDistA=0   AbsDistB=0.117788698158394   FOverLA=800   FOverLB=800   GUID=a8d3718d-dd7d-4ec1-a1a3-e235c3772bcc
   Frame=63   LoadPat=LineLoad   CoordSys=GLOBAL   Type=Force   Dir=Gravity   DistType=RelDist   RelDistA=0   RelDistB=1   AbsDistA=0   AbsDistB=0.117788698158395   FOverLA=800   FOverLB=800   GUID=cf7d6a65-cb96-45fa-a553-fbbc8eb75b42
   Frame=64   LoadPat=LineLoad   CoordSys=GLOBAL   Type=Force   Dir=Gravity   DistType=RelDist   RelDistA=0   RelDistB=1   AbsDistA=0   AbsDistB=0.117788698158393   FOverLA=800   FOverLB=800   GUID=5791aedc-4a2a-468f-94b2-205efff0786d
   Frame=65   LoadPat=LineLoad   CoordSys=GLOBAL   Type=Force   Dir=Gravity   DistType=RelDist   RelDistA=0   RelDistB=1   AbsDistA=0   AbsDistB=0.117788698158395   FOverLA=800   FOverLB=800   GUID=76e3e057-cd81-47ee-8b89-6cdb9b1eeb65
   Frame=66   LoadPat=LineLoad   CoordSys=GLOBAL   Type=Force   Dir=Gravity   DistType=RelDist   RelDistA=0   RelDistB=1   AbsDistA=0   AbsDistB=0.117788698158393   FOverLA=800   FOverLB=800   GUID=543f11c8-0d14-4c02-b046-d901885b2e13
   Frame=67   LoadPat=LineLoad   CoordSys=GLOBAL   Type=Force   Dir=Gravity   DistType=RelDist   RelDistA=0   RelDistB=1   AbsDistA=0   AbsDistB=0.117788698158395   FOverLA=800   FOverLB=800   GUID=fe59143f-244e-4a03-b347-87b000fcc898
   Frame=68   LoadPat=LineLoad   CoordSys=GLOBAL   Type=Force   Dir=Gravity   DistType=RelDist   RelDistA=0   RelDistB=1   AbsDistA=0   AbsDistB=0.117788698158395   FOverLA=800   FOverLB=800   GUID=bb9f01d2-47cc-4766-b86e-d181ed575155
   Frame=69   LoadPat=LineLoad   CoordSys=GLOBAL   Type=Force   Dir=Gravity   DistType=RelDist   RelDistA=0   RelDistB=1   AbsDistA=0   AbsDistB=0.117788698158393   FOverLA=800   FOverLB=800   GUID=890bd51a-d91b-465f-808a-d04dd2d86aa4
   Frame=70   LoadPat=LineLoad   CoordSys=GLOBAL   Type=Force   Dir=Gravity   DistType=RelDist   RelDistA=0   RelDistB=1   AbsDistA=0   AbsDistB=0.117788698158395   FOverLA=800   FOverLB=800   GUID=08c92ef4-0206-4bb2-aed4-a79479a678e1
   Frame=71   LoadPat=LineLoad   CoordSys=GLOBAL   Type=Force   Dir=Gravity   DistType=RelDist   RelDistA=0   RelDistB=1   AbsDistA=0   AbsDistB=0.117788698158393   FOverLA=800   FOverLB=800   GUID=74fba69e-00b2-440e-b0e5-d76392ea30ca
   Frame=72   LoadPat=LineLoad   CoordSys=GLOBAL   Type=Force   Dir=Gravity   DistType=RelDist   RelDistA=0   RelDistB=1   AbsDistA=0   AbsDistB=0.117788698158395   FOverLA=800   FOverLB=800   GUID=ed78189d-efb5-494c-8037-71291bc4c391
   Frame=73   LoadPat=LineLoad   CoordSys=GLOBAL   Type=Force   Dir=Gravity   DistType=RelDist   RelDistA=0   RelDistB=1   AbsDistA=0   AbsDistB=0.117788698158395   FOverLA=800   FOverLB=800   GUID=e91169a7-a6c2-43ec-a5f4-d1cc929ee613
   Frame=74   LoadPat=LineLoad   CoordSys=GLOBAL   Type=Force   Dir=Gravity   DistType=RelDist   RelDistA=0   RelDistB=1   AbsDistA=0   AbsDistB=0.117788698158393   FOverLA=800   FOverLB=800   GUID=d23ba77b-b92c-48d6-ac89-7422b304d014
   Frame=75   LoadPat=LineLoad   CoordSys=GLOBAL   Type=Force   Dir=Gravity   DistType=RelDist   RelDistA=0   RelDistB=1   AbsDistA=0   AbsDistB=0.117788698158395   FOverLA=800   FOverLB=800   GUID=4bf85b9d-7a40-4e3d-8efa-7e5739d18ed9
   Frame=76   LoadPat=LineLoad   CoordSys=GLOBAL   Type=Force   Dir=Gravity   DistType=RelDist   RelDistA=0   RelDistB=1   AbsDistA=0   AbsDistB=0.117788698158393   FOverLA=800   FOverLB=800   GUID=f92746a9-8384-4a56-9d16-3100cbdecdf5
   Frame=77   LoadPat=LineLoad   CoordSys=GLOBAL   Type=Force   Dir=Gravity   DistType=RelDist   RelDistA=0   RelDistB=1   AbsDistA=0   AbsDistB=0.117788698158395   FOverLA=800   FOverLB=800   GUID=43e27abd-b897-44fb-8ef0-c0c6c417ca77
   Frame=78   LoadPat=LineLoad   CoordSys=GLOBAL   Type=Force   Dir=Gravity   DistType=RelDist   RelDistA=0   RelDistB=1   AbsDistA=0   AbsDistB=0.117788698158395   FOverLA=800   FOverLB=800   GUID=7801ad83-c45f-4b69-84ca-5a7a8f929682
   Frame=79   LoadPat=LineLoad   CoordSys=GLOBAL   Type=Force   Dir=Gravity   DistType=RelDist   RelDistA=0   RelDistB=1   AbsDistA=0   AbsDistB=0.117788698158393   FOverLA=800   FOverLB=800   GUID=d5e1ae4d-01e9-4d6e-8b7e-503cbd4010f9
   Frame=80   LoadPat=LineLoad   CoordSys=GLOBAL   Type=Force   Dir=Gravity   DistType=RelDist   RelDistA=0   RelDistB=1   AbsDistA=0   AbsDistB=0.117788698158395   FOverLA=800   FOverLB=800   GUID=62e8e211-3dea-48f8-9a6e-e1307c504762
   Frame=81   LoadPat=LineLoad   CoordSys=GLOBAL   Type=Force   Dir=Gravity   DistType=RelDist   RelDistA=0   RelDistB=1   AbsDistA=0   AbsDistB=0.117788698158393   FOverLA=800   FOverLB=800   GUID=c624e4dd-24c2-4f51-a7d5-6d0911a69b3a
   Frame=82   LoadPat=LineLoad   CoordSys=GLOBAL   Type=Force   Dir=Gravity   DistType=RelDist   RelDistA=0   RelDistB=1   AbsDistA=0   AbsDistB=0.117788698158395   FOverLA=800   FOverLB=800   GUID=99d9723d-930e-47af-aecb-ba37f05f30a3
   Frame=83   LoadPat=LineLoad   CoordSys=GLOBAL   Type=Force   Dir=Gravity   DistType=RelDist   RelDistA=0   RelDistB=1   AbsDistA=0   AbsDistB=0.117788698158393   FOverLA=800   FOverLB=800   GUID=90f8accc-75c8-44f9-9c56-4152809c055a
   Frame=84   LoadPat=LineLoad   CoordSys=GLOBAL   Type=Force   Dir=Gravity   DistType=RelDist   RelDistA=0   RelDistB=1   AbsDistA=0   AbsDistB=0.117788698158395   FOverLA=800   FOverLB=800   GUID=691acb3e-4c8f-4543-b011-753ce5cbbcd5
   Frame=85   LoadPat=LineLoad   CoordSys=GLOBAL   Type=Force   Dir=Gravity   DistType=RelDist   RelDistA=0   RelDistB=1   AbsDistA=0   AbsDistB=0.117788698158395   FOverLA=800   FOverLB=800   GUID=f70b4769-d03c-4103-914e-ab9a957d32c9
   Frame=86   LoadPat=LineLoad   CoordSys=GLOBAL   Type=Force   Dir=Gravity   DistType=RelDist   RelDistA=0   RelDistB=1   AbsDistA=0   AbsDistB=0.117788698158393   FOverLA=800   FOverLB=800   GUID=cdde71c3-3a63-412b-8302-8fa538a3b9ba
   Frame=87   LoadPat=LineLoad   CoordSys=GLOBAL   Type=Force   Dir=Gravity   DistType=RelDist   RelDistA=0   RelDistB=1   AbsDistA=0   AbsDistB=0.117788698158395   FOverLA=800   FOverLB=800   GUID=051d5be5-ff10-49f1-824e-1621d04aa142
   Frame=88   LoadPat=LineLoad   CoordSys=GLOBAL   Type=Force   Dir=Gravity   DistType=RelDist   RelDistA=0   RelDistB=1   AbsDistA=0   AbsDistB=0.117788698158393   FOverLA=800   FOverLB=800   GUID=91ae775e-3fcb-4236-9b88-f9e9ff9a5500
   Frame=89   LoadPat=LineLoad   CoordSys=GLOBAL   Type=Force   Dir=Gravity   DistType=RelDist   RelDistA=0   RelDistB=1   AbsDistA=0   AbsDistB=0.117788698158395   FOverLA=800   FOverLB=800   GUID=0b7f3c7e-2ef5-4f3a-b3fd-dd4df4ff0512
   Frame=90   LoadPat=LineLoad   CoordSys=GLOBAL   Type=Force   Dir=Gravity   DistType=RelDist   RelDistA=0   RelDistB=1   AbsDistA=0   AbsDistB=0.117788698158393   FOverLA=800   FOverLB=800   GUID=02a49902-6ea6-4f9f-a569-3cb5d5cee155
   Frame=91   LoadPat=LineLoad   CoordSys=GLOBAL   Type=Force   Dir=Gravity   DistType=RelDist   RelDistA=0   RelDistB=1   AbsDistA=0   AbsDistB=0.117788698158395   FOverLA=800   FOverLB=800   GUID=fe25e60a-d12b-4938-b1e4-17fca5d80191
   Frame=92   LoadPat=LineLoad   CoordSys=GLOBAL   Type=Force   Dir=Gravity   DistType=RelDist   RelDistA=0   RelDistB=1   AbsDistA=0   AbsDistB=0.117788698158395   FOverLA=800   FOverLB=800   GUID=49185d63-db7a-486f-ae98-8f4c2692ec2a
   Frame=93   LoadPat=LineLoad   CoordSys=GLOBAL   Type=Force   Dir=Gravity   DistType=RelDist   RelDistA=0   RelDistB=1   AbsDistA=0   AbsDistB=0.117788698158393   FOverLA=800   FOverLB=800   GUID=6aa1593f-98e0-4e61-9e73-c2dd79818c46
   Frame=94   LoadPat=LineLoad   CoordSys=GLOBAL   Type=Force   Dir=Gravity   DistType=RelDist   RelDistA=0   RelDistB=1   AbsDistA=0   AbsDistB=0.117788698158395   FOverLA=800   FOverLB=800   GUID=3d6348fe-5faa-4526-9beb-4a4e50b4a5a2
   Frame=95   LoadPat=LineLoad   CoordSys=GLOBAL   Type=Force   Dir=Gravity   DistType=RelDist   RelDistA=0   RelDistB=1   AbsDistA=0   AbsDistB=0.117788698158393   FOverLA=800   FOverLB=800   GUID=bffa40a0-5953-4afe-879b-a2ef418b8dc3
   Frame=96   LoadPat=LineLoad   CoordSys=GLOBAL   Type=Force   Dir=Gravity   DistType=RelDist   RelDistA=0   RelDistB=1   AbsDistA=0   AbsDistB=0.117788698158395   FOverLA=800   FOverLB=800   GUID=54cbab3c-0f78-42d5-968d-5a5cbdc284c8
 
TABLE:  "FRAME LOAD TRANSFER OPTIONS"
   Frame=1   Transfer=Yes
   Frame=2   Transfer=Yes
   Frame=3   Transfer=Yes
   Frame=4   Transfer=Yes
   Frame=5   Transfer=Yes
   Frame=6   Transfer=Yes
   Frame=7   Transfer=Yes
   Frame=8   Transfer=Yes
   Frame=9   Transfer=Yes
   Frame=10   Transfer=Yes
   Frame=11   Transfer=Yes
   Frame=12   Transfer=Yes
   Frame=13   Transfer=Yes
   Frame=14   Transfer=Yes
   Frame=15   Transfer=Yes
   Frame=16   Transfer=Yes
   Frame=17   Transfer=Yes
   Frame=18   Transfer=Yes
   Frame=19   Transfer=Yes
   Frame=20   Transfer=Yes
# ... 76 like lines cut
 
TABLE:  "FRAME OUTPUT STATION ASSIGNMENTS"
   Frame=1   StationType=MaxStaSpcg   MaxStaSpcg=24   AddAtElmInt=Yes   AddAtPtLoad=Yes
   Frame=2   StationType=MaxStaSpcg   MaxStaSpcg=24   AddAtElmInt=Yes   AddAtPtLoad=Yes
   Frame=3   StationType=MaxStaSpcg   MaxStaSpcg=24   AddAtElmInt=Yes   AddAtPtLoad=Yes
   Frame=4   StationType=MaxStaSpcg   MaxStaSpcg=24   AddAtElmInt=Yes   AddAtPtLoad=Yes
   Frame=5   StationType=MaxStaSpcg   MaxStaSpcg=24   AddAtElmInt=Yes   AddAtPtLoad=Yes
   Frame=6   StationType=MaxStaSpcg   MaxStaSpcg=24   AddAtElmInt=Yes   AddAtPtLoad=Yes
   Frame=7   StationType=MaxStaSpcg   MaxStaSpcg=24   AddAtElmInt=Yes   AddAtPtLoad=Yes
   Frame=8   StationType=MaxStaSpcg   MaxStaSpcg=24   AddAtElmInt=Yes   AddAtPtLoad=Yes
   Frame=9   StationType=MaxStaSpcg   MaxStaSpcg=24   AddAtElmInt=Yes   AddAtPtLoad=Yes
   Frame=10   StationType=MaxStaSpcg   MaxStaSpcg=24   AddAtElmInt=Yes   AddAtPtLoad=Yes
   Frame=11   StationType=MaxStaSpcg   MaxStaSpcg=24   AddAtElmInt=Yes   AddAtPtLoad=Yes
   Frame=12   StationType=MaxStaSpcg   MaxStaSpcg=24   AddAtElmInt=Yes   AddAtPtLoad=Yes
   Frame=13   StationType=MaxStaSpcg   MaxStaSpcg=24   AddAtElmInt=Yes   AddAtPtLoad=Yes
   Frame=14   StationType=MaxStaSpcg   MaxStaSpcg=24   AddAtElmInt=Yes   AddAtPtLoad=Yes
   Frame=15   StationType=MaxStaSpcg   MaxStaSpcg=24   AddAtElmInt=Yes   AddAtPtLoad=Yes
   Frame=16   StationType=MaxStaSpcg   MaxStaSpcg=24   AddAtElmInt=Yes   AddAtPtLoad=Yes
   Frame=17   StationType=MaxStaSpcg   MaxStaSpcg=24   AddAtElmInt=Yes   AddAtPtLoad=Yes
   Frame=18   StationType=MaxStaSpcg   MaxStaSpcg=24   AddAtElmInt=Yes   AddAtPtLoad=Yes
   Frame=19   StationType=MaxStaSpcg   MaxStaSpcg=24   AddAtElmInt=Yes   AddAtPtLoad=Yes
   Frame=20   StationType=MaxStaSpcg   MaxStaSpcg=24   AddAtElmInt=Yes   AddAtPtLoad=Yes
# ... 76 like lines cut
 
TABLE:  "FRAME SECTION ASSIGNMENTS"
   Frame=1   AutoSelect=N.A.   AnalSect=DUMMY   MatProp=Default
   Frame=2   AutoSelect=N.A.   AnalSect=DUMMY   MatProp=Default
   Frame=3   AutoSelect=N.A.   AnalSect=DUMMY   MatProp=Default
   Frame=4   AutoSelect=N.A.   AnalSect=DUMMY   MatProp=Default
   Frame=5   AutoSelect=N.A.   AnalSect=DUMMY   MatProp=Default
   Frame=6   AutoSelect=N.A.   AnalSect=DUMMY   MatProp=Default
   Frame=7   AutoSelect=N.A.   AnalSect=DUMMY   MatProp=Default
   Frame=8   AutoSelect=N.A.   AnalSect=DUMMY   MatProp=Default
   Frame=9   AutoSelect=N.A.   AnalSect=DUMMY   MatProp=Default
   Frame=10   AutoSelect=N.A.   AnalSect=DUMMY   MatProp=Default
   Frame=11   AutoSelect=N.A.   AnalSect=DUMMY   MatProp=Default
   Frame=12   AutoSelect=N.A.   AnalSect=DUMMY   MatProp=Default
   Frame=13   AutoSelect=N.A.   AnalSect=DUMMY   MatProp=Default
   Frame=14   AutoSelect=N.A.   AnalSect=DUMMY   MatProp=Default
   Frame=15   AutoSelect=N.A.   AnalSect=DUMMY   MatProp=Default
   Frame=16   AutoSelect=N.A.   AnalSect=DUMMY   MatProp=Default
   Frame=17   AutoSelect=N.A.   AnalSect=DUMMY   MatProp=Default
   Frame=18   AutoSelect=N.A.   AnalSect=DUMMY   MatProp=Default
   Frame=19   AutoSelect=N.A.   AnalSect=DUMMY   MatProp=Default
   Frame=20   AutoSelect=N.A.   AnalSect=DUMMY   MatProp=Default
# ... 76 like lines cut
 
TABLE:  "FRAME SECTION PROPERTIES 01 - GENERAL"
   SectionName=DUMMY   Material=STEEL   Shape=Rectangular   t3=10   t2=10   Area=100   TorsConst=1408.3333996435   I33=833.333333333333   I22=833.333333333333   I23=0   AS2=83.3333333333333   AS3=83.3333333333333   S33Top=166.666666666667 _
        S33Bot=166.666666666667   S22Left=166.666666666667   S22Right=166.666666666667   Z33=250   Z22=250   R33=2.88675134594813   R22=2.88675134594813   CGOffset3=0   CGOffset2=0   EccV2=0   EccV3=0   Cw=0   Color=White   FromFile=No _
        AMod=0   A2Mod=0   A3Mod=0   JMod=0   I2Mod=0   I3Mod=0   MMod=0   WMod=0   GUID=61f730ef-cf7c-4d6c-bb08-767d5ebd5074
 
TABLE:  "FRAME SECTION PROPERTIES 13 - TIME DEPENDENT"
   SectionName=DUMMY   TypeSize=Auto   AutoSFSize=1
 
TABLE:  "FUNCTION - PLOT FUNCTIONS"
   PlotFunc="Input Energy"   Type=Energy   Component=Input   Mode=All
 
TABLE:  "GRID LINES"
   CoordSys=GLOBAL   AxisDir=R   XRYZCoord=1.4   LineType=Primary   LineColor=Gray8Dark   Visible=Yes   BubbleLoc=End   AllVisible=No   BubbleSize=48
   CoordSys=GLOBAL   AxisDir=R   XRYZCoord=1.5   LineType=Primary   LineColor=Gray8Dark   Visible=Yes   BubbleLoc=End
   CoordSys=GLOBAL   AxisDir=R   XRYZCoord=1.6   LineType=Primary   LineColor=Gray8Dark   Visible=Yes   BubbleLoc=End
   CoordSys=GLOBAL   AxisDir=R   XRYZCoord=1.7   LineType=Primary   LineColor=Gray8Dark   Visible=Yes   BubbleLoc=End
   CoordSys=GLOBAL   AxisDir=R   XRYZCoord=1.8   LineType=Primary   LineColor=Gray8Dark   Visible=Yes   BubbleLoc=End
   CoordSys=GLOBAL   AxisDir=R   XRYZCoord=1.9   LineType=Primary   LineColor=Gray8Dark   Visible=Yes   BubbleLoc=End
   CoordSys=GLOBAL   AxisDir=R   XRYZCoord=2   LineType=Primary   LineColor=Gray8Dark   Visible=Yes   BubbleLoc=End
   CoordSys=GLOBAL   AxisDir=T   TAngle=0   LineType=Primary   LineColor=Gray8Dark   Visible=Yes   BubbleLoc=End
   CoordSys=GLOBAL   AxisDir=T   TAngle=3.75   LineType=Primary   LineColor=Gray8Dark   Visible=Yes   BubbleLoc=End
   CoordSys=GLOBAL   AxisDir=T   TAngle=7.5   LineType=Primary   LineColor=Gray8Dark   Visible=Yes   BubbleLoc=End
   CoordSys=GLOBAL   AxisDir=T   TAngle=11.25   LineType=Primary   LineColor=Gray8Dark   Visible=Yes   BubbleLoc=End
   CoordSys=GLOBAL   AxisDir=T   TAngle=15   LineType=Primary   LineColor=Gray8Dark   Visible=Yes   BubbleLoc=End
   CoordSys=GLOBAL   AxisDir=T   TAngle=18.75   LineType=Primary   LineColor=Gray8Dark   Visible=Yes   BubbleLoc=End
   CoordSys=GLOBAL   AxisDir=T   TAngle=22.5   LineType=Primary   LineColor=Gray8Dark   Visible=Yes   BubbleLoc=End
   CoordSys=GLOBAL   AxisDir=T   TAngle=26.25   LineType=Primary   LineColor=Gray8Dark   Visible=Yes   BubbleLoc=End
   CoordSys=GLOBAL   AxisDir=T   TAngle=30   LineType=Primary   LineColor=Gray8Dark   Visible=Yes   BubbleLoc=End
   CoordSys=GLOBAL   AxisDir=T   TAngle=33.75   LineType=Primary   LineColor=Gray8Dark   Visible=Yes   BubbleLoc=End
   CoordSys=GLOBAL   AxisDir=T   TAngle=37.5   LineType=Primary   LineColor=Gray8Dark   Visible=Yes   BubbleLoc=End
   CoordSys=GLOBAL   AxisDir=T   TAngle=41.25   LineType=Primary   LineColor=Gray8Dark   Visible=Yes   BubbleLoc=End
   CoordSys=GLOBAL   AxisDir=T   TAngle=45   LineType=Primary   LineColor=Gray8Dark   Visible=Yes   BubbleLoc=End
   CoordSys=GLOBAL   AxisDir=T   TAngle=48.75   LineType=Primary   LineColor=Gray8Dark   Visible=Yes   BubbleLoc=End
   CoordSys=GLOBAL   AxisDir=T   TAngle=52.5   LineType=Primary   LineColor=Gray8Dark   Visible=Yes   BubbleLoc=End
   CoordSys=GLOBAL   AxisDir=T   TAngle=56.25   LineType=Primary   LineColor=Gray8Dark   Visible=Yes   BubbleLoc=End
   CoordSys=GLOBAL   AxisDir=T   TAngle=60   LineType=Primary   LineColor=Gray8Dark   Visible=Yes   BubbleLoc=End
   CoordSys=GLOBAL   AxisDir=T   TAngle=63.75   LineType=Primary   LineColor=Gray8Dark   Visible=Yes   BubbleLoc=End
   CoordSys=GLOBAL   AxisDir=T   TAngle=67.5   LineType=Primary   LineColor=Gray8Dark   Visible=Yes   BubbleLoc=End
   CoordSys=GLOBAL   AxisDir=T   TAngle=71.25   LineType=Primary   LineColor=Gray8Dark   Visible=Yes   BubbleLoc=End
# ... 77 like lines cut
   CoordSys=GLOBAL   AxisDir=Z   XRYZCoord=0   LineType=Primary   LineColor=Gray8Dark   Visible=Yes   BubbleLoc=End
 
TABLE:  "GROUPS 1 - DEFINITIONS"
   GroupName=ALL   Selection=Yes   SectionCut=Yes   Steel=Yes   Concrete=Yes   Aluminum=Yes   ColdFormed=Yes   Stage=Yes   Bridge=Yes   AutoSeismic=No   AutoWind=No   SelDesSteel=No   SelDesAlum=No   SelDesCold=No   MassWeight=Yes   Color=Red
   GroupName=DBO1   Selection=Yes   SectionCut=Yes   Steel=Yes   Concrete=Yes   Aluminum=Yes   ColdFormed=Yes   Stage=Yes   Bridge=Yes   AutoSeismic=No   AutoWind=No   SelDesSteel=No   SelDesAlum=No   SelDesCold=No   MassWeight=Yes   Color=White
 
TABLE:  "GROUPS 2 - ASSIGNMENTS"
   GroupName=DBO1   ObjectType=Joint   ObjectLabel=661
 
TABLE:  "JOINT COORDINATES"
   Joint=1   CoordSys=GLOBAL   CoordType=Cylindrical   XorR=1.4   T=0   Z=0   SpecialJt=Yes
   Joint=2   CoordSys=GLOBAL   CoordType=Cylindrical   XorR=1.4   T=3.75   Z=0   SpecialJt=Yes
   Joint=3   CoordSys=GLOBAL   CoordType=Cylindrical   XorR=1.4   T=7.5   Z=0   SpecialJt=Yes
   Joint=4   CoordSys=GLOBAL   CoordType=Cylindrical   XorR=1.4   T=11.25   Z=0   SpecialJt=Yes
   Joint=5   CoordSys=GLOBAL   CoordType=Cylindrical   XorR=1.4   T=15   Z=0   SpecialJt=Yes
   Joint=6   CoordSys=GLOBAL   CoordType=Cylindrical   XorR=1.4   T=18.75   Z=0   SpecialJt=Yes
   Joint=7   CoordSys=GLOBAL   CoordType=Cylindrical   XorR=1.4   T=22.5   Z=0   SpecialJt=Yes
   Joint=8   CoordSys=GLOBAL   CoordType=Cylindrical   XorR=1.4   T=26.25   Z=0   SpecialJt=Yes
   Joint=9   CoordSys=GLOBAL   CoordType=Cylindrical   XorR=1.4   T=30   Z=0   SpecialJt=Yes
   Joint=10   CoordSys=GLOBAL   CoordType=Cylindrical   XorR=1.4   T=33.75   Z=0   SpecialJt=Yes
   Joint=11   CoordSys=GLOBAL   CoordType=Cylindrical   XorR=1.4   T=37.5   Z=0   SpecialJt=Yes
   Joint=12   CoordSys=GLOBAL   CoordType=Cylindrical   XorR=1.4   T=41.25   Z=0   SpecialJt=Yes
   Joint=13   CoordSys=GLOBAL   CoordType=Cylindrical   XorR=1.4   T=45   Z=0   SpecialJt=Yes
   Joint=14   CoordSys=GLOBAL   CoordType=Cylindrical   XorR=1.4   T=48.75   Z=0   SpecialJt=Yes
   Joint=15   CoordSys=GLOBAL   CoordType=Cylindrical   XorR=1.4   T=52.5   Z=0   SpecialJt=Yes
   Joint=16   CoordSys=GLOBAL   CoordType=Cylindrical   XorR=1.4   T=56.25   Z=0   SpecialJt=Yes
   Joint=17   CoordSys=GLOBAL   CoordType=Cylindrical   XorR=1.4   T=60   Z=0   SpecialJt=Yes
   Joint=18   CoordSys=GLOBAL   CoordType=Cylindrical   XorR=1.4   T=63.75   Z=0   SpecialJt=Yes
   Joint=19   CoordSys=GLOBAL   CoordType=Cylindrical   XorR=1.4   T=67.5   Z=0   SpecialJt=Yes
   Joint=20   CoordSys=GLOBAL   CoordType=Cylindrical   XorR=1.4   T=71.25   Z=0   SpecialJt=Yes
# ... 652 like lines cut
 
TABLE:  "JOINT PATTERN DEFINITIONS"
   Pattern=DEFAULT
 
TABLE:  "JOINT RESTRAINT ASSIGNMENTS"
   Joint=1   U1=Yes   U2=Yes   U3=Yes   R1=No   R2=No   R3=No
   Joint=2   U1=Yes   U2=Yes   U3=Yes   R1=No   R2=No   R3=No
   Joint=3   U1=Yes   U2=Yes   U3=Yes   R1=No   R2=No   R3=No
   Joint=4   U1=Yes   U2=Yes   U3=Yes   R1=No   R2=No   R3=No
   Joint=5   U1=Yes   U2=Yes   U3=Yes   R1=No   R2=No   R3=No
   Joint=6   U1=Yes   U2=Yes   U3=Yes   R1=No   R2=No   R3=No
   Joint=7   U1=Yes   U2=Yes   U3=Yes   R1=No   R2=No   R3=No
   Joint=8   U1=Yes   U2=Yes   U3=Yes   R1=No   R2=No   R3=No
   Joint=9   U1=Yes   U2=Yes   U3=Yes   R1=No   R2=No   R3=No
   Joint=10   U1=Yes   U2=Yes   U3=Yes   R1=No   R2=No   R3=No
   Joint=11   U1=Yes   U2=Yes   U3=Yes   R1=No   R2=No   R3=No
   Joint=12   U1=Yes   U2=Yes   U3=Yes   R1=No   R2=No   R3=No
   Joint=13   U1=Yes   U2=Yes   U3=Yes   R1=No   R2=No   R3=No
   Joint=14   U1=Yes   U2=Yes   U3=Yes   R1=No   R2=No   R3=No
   Joint=15   U1=Yes   U2=Yes   U3=Yes   R1=No   R2=No   R3=No
   Joint=16   U1=Yes   U2=Yes   U3=Yes   R1=No   R2=No   R3=No
   Joint=17   U1=Yes   U2=Yes   U3=Yes   R1=No   R2=No   R3=No
   Joint=18   U1=Yes   U2=Yes   U3=Yes   R1=No   R2=No   R3=No
   Joint=19   U1=Yes   U2=Yes   U3=Yes   R1=No   R2=No   R3=No
   Joint=20   U1=Yes   U2=Yes   U3=Yes   R1=No   R2=No   R3=No
# ... 76 like lines cut
 
TABLE:  "LINK PROPERTY DEFINITIONS 01 - GENERAL"
   Link=LIN1   LinkType=Linear   Mass=0   Weight=0   RotInert1=0   RotInert2=0   RotInert3=0   DefLength=1   DefArea=1   PDM2I=0   PDM2J=0   PDM3I=0   PDM3J=0   StiffDFact=1   Color=Green   GUID=9674c576-8a0f-4696-a7e8-cd74490725af
 
TABLE:  "LOAD CASE DEFINITIONS"
   Case=LineLoad   Type=LinStatic   InitialCond=Zero   DesTypeOpt="Prog Det"   DesignType=Other   DesActOpt="Prog Det"   DesignAct=Other   AutoType=None   RunCase=Yes   GUID=79883548-850d-4e29-8084-7a2f006663fb
 
TABLE:  "LOAD PATTERN DEFINITIONS"
   LoadPat=LineLoad   DesignType=Other   SelfWtMult=0   GUID=0f16ffd9-c975-4028-be18-e1e97df8993c
 
TABLE:  "MASS SOURCE"
   MassSource=MSSSRC1   Elements=Yes   Masses=Yes   Loads=No   IsDefault=Yes
 
TABLE:  "MATERIAL PROPERTIES 01 - GENERAL"
   Material=A416Gr270   Type=Tendon   SymType=Uniaxial   TempDepend=No   Color=Blue   GUID=17e179c0-b888-4bf5-ad0b-5786e6d95f38   Notes="ASTM A416 Grade 270 added 6/26/2008 7:03:31 PM"
   Material=A615Gr60   Type=Rebar   SymType=Uniaxial   TempDepend=No   Color=Green   GUID=6b1f0d98-e157-470f-8ec1-aafab3debc70   Notes="ASTM A615 Grade 60 added 9/19/2006 4:53:21 PM"
   Material=ALUM   Type=Aluminum   SymType=Isotropic   TempDepend=No   Color=Red   GUID=7ed39ecb-a43e-48cb-ba7e-95b08f8c52dc   Notes="Aluminum Alloy 6061 T6 added 9/19/2006 4:53:21 PM"
   Material=CONC   Type=Concrete   SymType=Isotropic   TempDepend=No   Color=Cyan   GUID=bc5567ef-f746-4798-91ca-bda6b7fc220a   Notes="Normalweight f'c = 4 ksi added 9/19/2006 4:53:21 PM"
   Material=OTHER   Type=Other   SymType=Isotropic   TempDepend=No   Color=Magenta   GUID=f600541a-d02f-4195-b060-858fc7620efd   Notes="Material added 9/19/2006 4:53:21 PM"
   Material=STEEL   Type=Steel   SymType=Isotropic   TempDepend=No   Color=Green   GUID=a04e1df8-bd9f-410f-86e6-880b2a3a15e5   Notes="ASTM A36 added 9/19/2006 4:53:21 PM"
 
TABLE:  "MATERIAL PROPERTIES 02 - BASIC MECHANICAL PROPERTIES"
   Material=A416Gr270   UnitWeight=0.283564814814815   UnitMass=0.000734455290352564   E1=28500000   A1=6.5E-06
   Material=A615Gr60   UnitWeight=0.283564814814815   UnitMass=0.000734455290352564   E1=29000000   A1=6.5E-06
   Material=ALUM   UnitWeight=0.283   UnitMass=0.0007324016   E1=10900000   G12=4192307.69230769   U12=0.3   A1=6.5E-06
   Material=CONC   UnitWeight=0.0868055555555556   UnitMass=0.000224833252148744   E1=3600000   G12=1500000   U12=0.2   A1=5.5E-06
   Material=OTHER   UnitWeight=0   UnitMass=0   E1=18000000   G12=6923076.92307692   U12=0.3   A1=5.5E-06
   Material=STEEL   UnitWeight=0.283564814814815   UnitMass=0.000734455290352564   E1=29000000   G12=11153846.1538462   U12=0.3   A1=6.5E-06
 
TABLE:  "MATERIAL PROPERTIES 03A - STEEL DATA"
   Material=STEEL   Fy=36000   Fu=58000   EffFy=54000   EffFu=63800   SSCurveOpt="User Defined"   SSHysType=Kinematic   CoupModType="Von Mises"
 
TABLE:  "MATERIAL PROPERTIES 03B - CONCRETE DATA"
   Material=CONC   Fc=4000   eFc=4000   LtWtConc=No   SSCurveOpt="User Defined"   SSHysType=Kinematic   FAngle=0   DAngle=0   CoupModType="Modified Darwin-Pecknold"
 
TABLE:  "MATERIAL PROPERTIES 03C - ALUMINUM DATA"
   Material=ALUM   AlumType=Wrought   Alloy=2014-T6   Fcy=59000   Fty=58000   Ftu=66000   Fsu=40000   SSHysType=Kinematic   CoupModType="Von Mises"
 
TABLE:  "MATERIAL PROPERTIES 03E - REBAR DATA"
   Material=A615Gr60   Fy=60000   Fu=90000   EffFy=66000   EffFu=99000   SSCurveOpt=Simple   SSHysType=Kinematic   SHard=0.01   SCap=0.09   FinalSlope=-0.1   UseCTDef=No   CoupModType="Von Mises"
 
TABLE:  "MATERIAL PROPERTIES 03F - TENDON DATA"
   Material=A416Gr270   Fy=245100   Fu=270000   SSCurveOpt="270 ksi"   SSHysType=Kinematic   FinalSlope=-0.1   CoupModType="Von Mises"
 
TABLE:  "MATERIAL PROPERTIES 03G - OTHER DATA"
   Material=OTHER   SSHysType=Elastic   FAngle=0   DAngle=0   CoupModType=None
 
TABLE:  "MATERIAL PROPERTIES 03J - COUPLED NONLINEAR VON MISES DATA"
   Material=A416Gr270   YieldStress=245100   LinIsoHard=No   LinKinHard=No   NLIsoSaHard=No
   Material=A615Gr60   YieldStress=66000   LinIsoHard=No   LinKinHard=No   NLIsoSaHard=No
   Material=ALUM   YieldStress=59000   LinIsoHard=No   LinKinHard=No   NLIsoSaHard=No
   Material=STEEL   YieldStress=54000   LinIsoHard=No   LinKinHard=No   NLIsoSaHard=No
 
TABLE:  "MATERIAL PROPERTIES 04 - USER STRESS-STRAIN CURVES"
   Material=ALUM   Strain=-0.000270642201834862   Stress=0   PointID=-E
   Material=ALUM   Strain=-0.000189449541284404   Stress=-1032500   PointID=-D
   Material=ALUM   Strain=-0.000108256880733945   Stress=-2065000   PointID=-C
   Material=ALUM   Strain=-1.87573803251885E-08   Stress=-2065000   PointID=-B
   Material=ALUM   Strain=0   Stress=0   PointID=A
   Material=ALUM   Strain=1.87573803251885E-08   Stress=2065000   PointID=B
   Material=ALUM   Strain=0.000108256880733945   Stress=2065000
   Material=ALUM   Strain=0.000270642201834862   Stress=2242000   PointID=C
   Material=ALUM   Strain=0.00043302752293578   Stress=2242000   PointID=D
   Material=ALUM   Strain=0.000541284403669725   Stress=2065000   PointID=E
   Material=CONC   Strain=-5.55555555555556E-05   Stress=0   PointID=-E
   Material=CONC   Strain=-3.88888888888889E-05   Stress=-120000000   PointID=-D
   Material=CONC   Strain=-2.22222222222222E-05   Stress=-240000000   PointID=-C
   Material=CONC   Strain=-2.29885057471264E-06   Stress=-240000000   PointID=-B
   Material=CONC   Strain=0   Stress=0   PointID=A
   Material=CONC   Strain=2.29885057471264E-06   Stress=240000000   PointID=B
   Material=CONC   Strain=2.22222222222222E-05   Stress=240000000
   Material=CONC   Strain=5.55555555555556E-05   Stress=300000000   PointID=C
   Material=CONC   Strain=8.88888888888889E-05   Stress=300000000   PointID=D
   Material=CONC   Strain=0.000111111111111111   Stress=240000000   PointID=E
   Material=OTHER   Strain=-5.55555555555556E-08   Stress=-1
   Material=OTHER   Strain=0   Stress=0   PointID=A
   Material=OTHER   Strain=5.55555555555556E-08   Stress=1
   Material=STEEL   Strain=-6.20689655172414E-05   Stress=0   PointID=-E
   Material=STEEL   Strain=-4.3448275862069E-05   Stress=-648000000   PointID=-D
   Material=STEEL   Strain=-2.48275862068966E-05   Stress=-1296000000   PointID=-C
   Material=STEEL   Strain=-1.5410225921522E-06   Stress=-1296000000   PointID=-B
   Material=STEEL   Strain=0   Stress=0   PointID=A
   Material=STEEL   Strain=1.5410225921522E-06   Stress=1296000000   PointID=B
   Material=STEEL   Strain=2.48275862068966E-05   Stress=1296000000
   Material=STEEL   Strain=6.20689655172414E-05   Stress=2088000000   PointID=C
   Material=STEEL   Strain=9.93103448275862E-05   Stress=2088000000   PointID=D
   Material=STEEL   Strain=0.000124137931034483   Stress=1296000000   PointID=E
 
TABLE:  "MATERIAL PROPERTIES 06 - DAMPING PARAMETERS"
   Material=A416Gr270   ModalRatio=0   VisMass=0   VisStiff=0   HysMass=0   HysStiff=0
   Material=A615Gr60   ModalRatio=0   VisMass=0   VisStiff=0   HysMass=0   HysStiff=0
   Material=ALUM   ModalRatio=0   VisMass=0   VisStiff=0   HysMass=0   HysStiff=0
   Material=CONC   ModalRatio=0   VisMass=0   VisStiff=0   HysMass=0   HysStiff=0
   Material=OTHER   ModalRatio=0   VisMass=0   VisStiff=0   HysMass=0   HysStiff=0
   Material=STEEL   ModalRatio=0   VisMass=0   VisStiff=0   HysMass=0   HysStiff=0
 
TABLE:  "MATERIAL PROPERTIES 09 - ACCEPTANCE CRITERIA"
   Material=A416Gr270   IOTens=0.015   LSTens=0.023   CPTens=0.03   IOComp=-0.015   LSComp=-0.023   CPComp=-0.03
   Material=A615Gr60   IOTens=0.01   LSTens=0.02   CPTens=0.05   IOComp=-0.005   LSComp=-0.01   CPComp=-0.02
   Material=ALUM   IOTens=0.01   LSTens=0.02   CPTens=0.05   IOComp=-0.005   LSComp=-0.01   CPComp=-0.02
   Material=CONC   IOTens=0.01   LSTens=0.02   CPTens=0.05   IOComp=-0.003   LSComp=-0.006   CPComp=-0.015   IgnoreTens=Yes
   Material=OTHER   IOTens=0.01   LSTens=0.02   CPTens=0.05   IOComp=-0.005   LSComp=-0.01   CPComp=-0.02   IgnoreTens=No
   Material=STEEL   IOTens=0.01   LSTens=0.02   CPTens=0.05   IOComp=-0.005   LSComp=-0.01   CPComp=-0.02
 
TABLE:  "NAMED SETS - DATABASE TABLES 1 - GENERAL"
   DBNamedSet=DBO1   SortOrder="Elem, Cases"   Unformatted=Yes   ModeStart=1   ModeEnd=All   ModalHist=Envelopes   DirectHist=Envelopes   NLStatic=LastStep   BaseReacX=0   BaseReacY=0   BaseReacZ=0   Combo=Envelopes   Steady=Frequencies _
        SteadyOpt=Magnitude   PSD=RMS   Multistep=Envelopes
 
TABLE:  "NAMED SETS - DATABASE TABLES 2 - SELECTIONS"
   DBNamedSet=DBO1   SelectType=Table   Selection="Joint Displacements"
   DBNamedSet=DBO1   SelectType=LoadCase   Selection=LineLoad
 
TABLE:  "OPTIONS - COLORS - DISPLAY"
   DeviceType=Screen   Points=Yellow   LinesFrame=Yellow   LinesFrmDL=Yellow   LinesCable=Green   LinesTendon=Green   SpringLinks=Green   Restraints=Green   Releases=Green   Axes=Cyan   Text=Green   ShadowLines=Gray8Dark _
        GuideLines=Gray8Dark   Highlight=Red   Selection=White   AreaFillBot=Red   AreaFillTop=Yellow   AreaFillSd=Red   AreaEdge=DarkRed   SolidF1=Red   SolidF2=Blue   SolidF3=Green   SolidF4=Yellow   SolidF5=White   SolidF6=Cyan _
        SolidEdge=DarkRed   Floor=Gray4   Background=Black   BGLowLeft=Black   BGLowRight=Black   BGUpRight=Black   Darkness=0.5
   DeviceType=Printer   Points=Gray8Dark   LinesFrame=Black   LinesFrmDL=Gray4   LinesCable=Black   LinesTendon=Black   SpringLinks=Gray8Dark   Restraints=Gray8Dark   Releases=Gray4   Axes=Black   Text=Black   ShadowLines=Gray4 _
        GuideLines=Gray4   Highlight=Black   Selection=Black   AreaFillBot=Gray4   AreaFillTop=Gray8Dark   AreaFillSd=Gray4   AreaEdge=Black   SolidF1=Gray1Light   SolidF2=Gray2   SolidF3=Gray3   SolidF4=Gray4   SolidF5=Gray5 _
        SolidF6=Gray6   SolidEdge=Black   Floor=Gray4   Background=White   BGLowLeft=White   BGLowRight=White   BGUpRight=White   Darkness=0.5
   DeviceType="Color Printer"   Points=Yellow   LinesFrame=Blue   LinesFrmDL=7303023   LinesCable=Green   LinesTendon=Green   SpringLinks=Green   Restraints=Green   Releases=Green   Axes=Cyan   Text=Green   ShadowLines=Gray8Dark _
        GuideLines=Gray8Dark   Highlight=Red   Selection=10504778   AreaFillBot=Red   AreaFillTop=Yellow   AreaFillSd=16634568   AreaEdge=DarkRed   SolidF1=Red   SolidF2=Blue   SolidF3=Green   SolidF4=Yellow   SolidF5=White   SolidF6=Cyan _
        SolidEdge=DarkRed   Floor=10461087   Background=White   BGLowLeft=White   BGLowRight=14671839   BGUpRight=White   Darkness=0.5
 
TABLE:  "OPTIONS - COLORS - OUTPUT"
   DeviceType=Screen   Contour1=13107400   Contour2=6553828   Contour3=Red   Contour4=16639   Contour5=Orange   Contour6=43775   Contour7=54527   Contour8=Yellow   Contour9=65408   Contour10=Green   Contour11=8453888   Contour12=Cyan _
        Contour13=16755200   Contour14=16733440   Contour15=Blue   Transpare=0.5   Ratio1=Cyan   Ratio2=Green   Ratio3=Yellow   Ratio4=Orange   Ratio5=Red   RatioNotD=Gray4   RatioNotC=Red   RatioVal1=0.5   RatioVal2=0.7   RatioVal3=0.9 _
        RatioVal4=1   DFillPos=Yellow   DFillNeg=Red   DFillRPos=Blue   DFillRNeg=Blue
   DeviceType=Printer   Contour1=Black   Contour2=3158064   Contour3=4210752   Contour4=5263440   Contour5=6316128   Contour6=7368816   Contour7=Gray8Dark   Contour8=Gray7   Contour9=Gray6   Contour10=Gray5   Contour11=Gray4 _
        Contour12=Gray3   Contour13=Gray2   Contour14=Gray1Light   Contour15=White   Transpare=0   Ratio1=Gray2   Ratio2=Gray4   Ratio3=Gray8Dark   Ratio4=4210752   Ratio5=Black   RatioNotD=Gray4   RatioNotC=Black   RatioVal1=0.5 _
        RatioVal2=0.7   RatioVal3=0.9   RatioVal4=1   DFillPos=Gray8Dark   DFillNeg=Gray8Dark   DFillRPos=4210752   DFillRNeg=4210752
   DeviceType="Color Printer"   Contour1=13107400   Contour2=6553828   Contour3=Red   Contour4=16639   Contour5=Orange   Contour6=43775   Contour7=54527   Contour8=Yellow   Contour9=65408   Contour10=Green   Contour11=8453888 _
        Contour12=Cyan   Contour13=16755200   Contour14=16733440   Contour15=Blue   Transpare=0.5   Ratio1=Cyan   Ratio2=Green   Ratio3=Yellow   Ratio4=Orange   Ratio5=Red   RatioNotD=Gray4   RatioNotC=Red   RatioVal1=0.5   RatioVal2=0.7 _
        RatioVal3=0.9   RatioVal4=1   DFillPos=Red   DFillNeg=Red   DFillRPos=Blue   DFillRNeg=Blue
 
TABLE:  "OVERWRITES - STEEL DESIGN - AISC360-05-IBC2006"
   Frame=1   DesignSect="Program Determined"   FrameType="Program Determined"   Fy=0   RLLF=0   AreaRatio=0   XLMajor=0   XLMinor=0   XLLTB=0   K1Major=0   K1Minor=0   K2Major=0   K2Minor=0   KLTB=0   CmMajor=0   CmMinor=0   Cb=0 _
        B1Major=0   B1Minor=0   B2Major=0   B2Minor=0   HSSReduceT="Program Determined"   HSSWelding="Program Determined"   Omega0=0   Ry=0   Pnc=0   Pnt=0   Mn3=0   Mn2=0   Vn2=0   Vn3=0   CheckDefl="Program Determined" _
        DeflType="Program Determined"   DLRat=0   SDLAndLLRat=0   LLRat=0   TotalRat=0   NetRat=0   DLAbs=0   SDLAndLLAbs=0   LLAbs=0   TotalAbs=0   NetAbs=0   SpecCamber=0   DCLimit=0
   Frame=2   DesignSect="Program Determined"   FrameType="Program Determined"   Fy=0   RLLF=0   AreaRatio=0   XLMajor=0   XLMinor=0   XLLTB=0   K1Major=0   K1Minor=0   K2Major=0   K2Minor=0   KLTB=0   CmMajor=0   CmMinor=0   Cb=0 _
        B1Major=0   B1Minor=0   B2Major=0   B2Minor=0   HSSReduceT="Program Determined"   HSSWelding="Program Determined"   Omega0=0   Ry=0   Pnc=0   Pnt=0   Mn3=0   Mn2=0   Vn2=0   Vn3=0   CheckDefl="Program Determined" _
        DeflType="Program Determined"   DLRat=0   SDLAndLLRat=0   LLRat=0   TotalRat=0   NetRat=0   DLAbs=0   SDLAndLLAbs=0   LLAbs=0   TotalAbs=0   NetAbs=0   SpecCamber=0   DCLimit=0
   Frame=3   DesignSect="Program Determined"   FrameType="Program Determined"   Fy=0   RLLF=0   AreaRatio=0   XLMajor=0   XLMinor=0   XLLTB=0   K1Major=0   K1Minor=0   K2Major=0   K2Minor=0   KLTB=0   CmMajor=0   CmMinor=0   Cb=0 _
        B1Major=0   B1Minor=0   B2Major=0   B2Minor=0   HSSReduceT="Program Determined"   HSSWelding="Program Determined"   Omega0=0   Ry=0   Pnc=0   Pnt=0   Mn3=0   Mn2=0   Vn2=0   Vn3=0   CheckDefl="Program Determined" _
        DeflType="Program Determined"   DLRat=0   SDLAndLLRat=0   LLRat=0   TotalRat=0   NetRat=0   DLAbs=0   SDLAndLLAbs=0   LLAbs=0   TotalAbs=0   NetAbs=0   SpecCamber=0   DCLimit=0
   Frame=4   DesignSect="Program Determined"   FrameType="Program Determined"   Fy=0   RLLF=0   AreaRatio=0   XLMajor=0   XLMinor=0   XLLTB=0   K1Major=0   K1Minor=0   K2Major=0   K2Minor=0   KLTB=0   CmMajor=0   CmMinor=0   Cb=0 _
        B1Major=0   B1Minor=0   B2Major=0   B2Minor=0   HSSReduceT="Program Determined"   HSSWelding="Program Determined"   Omega0=0   Ry=0   Pnc=0   Pnt=0   Mn3=0   Mn2=0   Vn2=0   Vn3=0   CheckDefl="Program Determined" _
        DeflType="Program Determined"   DLRat=0   SDLAndLLRat=0   LLRat=0   TotalRat=0   NetRat=0   DLAbs=0   SDLAndLLAbs=0   LLAbs=0   TotalAbs=0   NetAbs=0   SpecCamber=0   DCLimit=0
   Frame=5   DesignSect="Program Determined"   FrameType="Program Determined"   Fy=0   RLLF=0   AreaRatio=0   XLMajor=0   XLMinor=0   XLLTB=0   K1Major=0   K1Minor=0   K2Major=0   K2Minor=0   KLTB=0   CmMajor=0   CmMinor=0   Cb=0 _
        B1Major=0   B1Minor=0   B2Major=0   B2Minor=0   HSSReduceT="Program Determined"   HSSWelding="Program Determined"   Omega0=0   Ry=0   Pnc=0   Pnt=0   Mn3=0   Mn2=0   Vn2=0   Vn3=0   CheckDefl="Program Determined" _
        DeflType="Program Determined"   DLRat=0   SDLAndLLRat=0   LLRat=0   TotalRat=0   NetRat=0   DLAbs=0   SDLAndLLAbs=0   LLAbs=0   TotalAbs=0   NetAbs=0   SpecCamber=0   DCLimit=0
   Frame=6   DesignSect="Program Determined"   FrameType="Program Determined"   Fy=0   RLLF=0   AreaRatio=0   XLMajor=0   XLMinor=0   XLLTB=0   K1Major=0   K1Minor=0   K2Major=0   K2Minor=0   KLTB=0   CmMajor=0   CmMinor=0   Cb=0 _
        B1Major=0   B1Minor=0   B2Major=0   B2Minor=0   HSSReduceT="Program Determined"   HSSWelding="Program Determined"   Omega0=0   Ry=0   Pnc=0   Pnt=0   Mn3=0   Mn2=0   Vn2=0   Vn3=0   CheckDefl="Program Determined" _
        DeflType="Program Determined"   DLRat=0   SDLAndLLRat=0   LLRat=0   TotalRat=0   NetRat=0   DLAbs=0   SDLAndLLAbs=0   LLAbs=0   TotalAbs=0   NetAbs=0   SpecCamber=0   DCLimit=0
   Frame=7   DesignSect="Program Determined"   FrameType="Program Determined"   Fy=0   RLLF=0   AreaRatio=0   XLMajor=0   XLMinor=0   XLLTB=0   K1Major=0   K1Minor=0   K2Major=0   K2Minor=0   KLTB=0   CmMajor=0   CmMinor=0   Cb=0 _
        B1Major=0   B1Minor=0   B2Major=0   B2Minor=0   HSSReduceT="Program Determined"   HSSWelding="Program Determined"   Omega0=0   Ry=0   Pnc=0   Pnt=0   Mn3=0   Mn2=0   Vn2=0   Vn3=0   CheckDefl="Program Determined" _
        DeflType="Program Determined"   DLRat=0   SDLAndLLRat=0   LLRat=0   TotalRat=0   NetRat=0   DLAbs=0   SDLAndLLAbs=0   LLAbs=0   TotalAbs=0   NetAbs=0   SpecCamber=0   DCLimit=0
   Frame=8   DesignSect="Program Determined"   FrameType="Program Determined"   Fy=0   RLLF=0   AreaRatio=0   XLMajor=0   XLMinor=0   XLLTB=0   K1Major=0   K1Minor=0   K2Major=0   K2Minor=0   KLTB=0   CmMajor=0   CmMinor=0   Cb=0 _
        B1Major=0   B1Minor=0   B2Major=0   B2Minor=0   HSSReduceT="Program Determined"   HSSWelding="Program Determined"   Omega0=0   Ry=0   Pnc=0   Pnt=0   Mn3=0   Mn2=0   Vn2=0   Vn3=0   CheckDefl="Program Determined" _
        DeflType="Program Determined"   DLRat=0   SDLAndLLRat=0   LLRat=0   TotalRat=0   NetRat=0   DLAbs=0   SDLAndLLAbs=0   LLAbs=0   TotalAbs=0   NetAbs=0   SpecCamber=0   DCLimit=0
   Frame=9   DesignSect="Program Determined"   FrameType="Program Determined"   Fy=0   RLLF=0   AreaRatio=0   XLMajor=0   XLMinor=0   XLLTB=0   K1Major=0   K1Minor=0   K2Major=0   K2Minor=0   KLTB=0   CmMajor=0   CmMinor=0   Cb=0 _
        B1Major=0   B1Minor=0   B2Major=0   B2Minor=0   HSSReduceT="Program Determined"   HSSWelding="Program Determined"   Omega0=0   Ry=0   Pnc=0   Pnt=0   Mn3=0   Mn2=0   Vn2=0   Vn3=0   CheckDefl="Program Determined" _
        DeflType="Program Determined"   DLRat=0   SDLAndLLRat=0   LLRat=0   TotalRat=0   NetRat=0   DLAbs=0   SDLAndLLAbs=0   LLAbs=0   TotalAbs=0   NetAbs=0   SpecCamber=0   DCLimit=0
   Frame=10   DesignSect="Program Determined"   FrameType="Program Determined"   Fy=0   RLLF=0   AreaRatio=0   XLMajor=0   XLMinor=0   XLLTB=0   K1Major=0   K1Minor=0   K2Major=0   K2Minor=0   KLTB=0   CmMajor=0   CmMinor=0   Cb=0 _
        B1Major=0   B1Minor=0   B2Major=0   B2Minor=0   HSSReduceT="Program Determined"   HSSWelding="Program Determined"   Omega0=0   Ry=0   Pnc=0   Pnt=0   Mn3=0   Mn2=0   Vn2=0   Vn3=0   CheckDefl="Program Determined" _
        DeflType="Program Determined"   DLRat=0   SDLAndLLRat=0   LLRat=0   TotalRat=0   NetRat=0   DLAbs=0   SDLAndLLAbs=0   LLAbs=0   TotalAbs=0   NetAbs=0   SpecCamber=0   DCLimit=0
   Frame=11   DesignSect="Program Determined"   FrameType="Program Determined"   Fy=0   RLLF=0   AreaRatio=0   XLMajor=0   XLMinor=0   XLLTB=0   K1Major=0   K1Minor=0   K2Major=0   K2Minor=0   KLTB=0   CmMajor=0   CmMinor=0   Cb=0 _
        B1Major=0   B1Minor=0   B2Major=0   B2Minor=0   HSSReduceT="Program Determined"   HSSWelding="Program Determined"   Omega0=0   Ry=0   Pnc=0   Pnt=0   Mn3=0   Mn2=0   Vn2=0   Vn3=0   CheckDefl="Program Determined" _
        DeflType="Program Determined"   DLRat=0   SDLAndLLRat=0   LLRat=0   TotalRat=0   NetRat=0   DLAbs=0   SDLAndLLAbs=0   LLAbs=0   TotalAbs=0   NetAbs=0   SpecCamber=0   DCLimit=0
   Frame=12   DesignSect="Program Determined"   FrameType="Program Determined"   Fy=0   RLLF=0   AreaRatio=0   XLMajor=0   XLMinor=0   XLLTB=0   K1Major=0   K1Minor=0   K2Major=0   K2Minor=0   KLTB=0   CmMajor=0   CmMinor=0   Cb=0 _
        B1Major=0   B1Minor=0   B2Major=0   B2Minor=0   HSSReduceT="Program Determined"   HSSWelding="Program Determined"   Omega0=0   Ry=0   Pnc=0   Pnt=0   Mn3=0   Mn2=0   Vn2=0   Vn3=0   CheckDefl="Program Determined" _
        DeflType="Program Determined"   DLRat=0   SDLAndLLRat=0   LLRat=0   TotalRat=0   NetRat=0   DLAbs=0   SDLAndLLAbs=0   LLAbs=0   TotalAbs=0   NetAbs=0   SpecCamber=0   DCLimit=0
   Frame=13   DesignSect="Program Determined"   FrameType="Program Determined"   Fy=0   RLLF=0   AreaRatio=0   XLMajor=0   XLMinor=0   XLLTB=0   K1Major=0   K1Minor=0   K2Major=0   K2Minor=0   KLTB=0   CmMajor=0   CmMinor=0   Cb=0 _
        B1Major=0   B1Minor=0   B2Major=0   B2Minor=0   HSSReduceT="Program Determined"   HSSWelding="Program Determined"   Omega0=0   Ry=0   Pnc=0   Pnt=0   Mn3=0   Mn2=0   Vn2=0   Vn3=0   CheckDefl="Program Determined" _
        DeflType="Program Determined"   DLRat=0   SDLAndLLRat=0   LLRat=0   TotalRat=0   NetRat=0   DLAbs=0   SDLAndLLAbs=0   LLAbs=0   TotalAbs=0   NetAbs=0   SpecCamber=0   DCLimit=0
   Frame=14   DesignSect="Program Determined"   FrameType="Program Determined"   Fy=0   RLLF=0   AreaRatio=0   XLMajor=0   XLMinor=0   XLLTB=0   K1Major=0   K1Minor=0   K2Major=0   K2Minor=0   KLTB=0   CmMajor=0   CmMinor=0   Cb=0 _
        B1Major=0   B1Minor=0   B2Major=0   B2Minor=0   HSSReduceT="Program Determined"   HSSWelding="Program Determined"   Omega0=0   Ry=0   Pnc=0   Pnt=0   Mn3=0   Mn2=0   Vn2=0   Vn3=0   CheckDefl="Program Determined" _
        DeflType="Program Determined"   DLRat=0   SDLAndLLRat=0   LLRat=0   TotalRat=0   NetRat=0   DLAbs=0   SDLAndLLAbs=0   LLAbs=0   TotalAbs=0   NetAbs=0   SpecCamber=0   DCLimit=0
   Frame=15   DesignSect="Program Determined"   FrameType="Program Determined"   Fy=0   RLLF=0   AreaRatio=0   XLMajor=0   XLMinor=0   XLLTB=0   K1Major=0   K1Minor=0   K2Major=0   K2Minor=0   KLTB=0   CmMajor=0   CmMinor=0   Cb=0 _
        B1Major=0   B1Minor=0   B2Major=0   B2Minor=0   HSSReduceT="Program Determined"   HSSWelding="Program Determined"   Omega0=0   Ry=0   Pnc=0   Pnt=0   Mn3=0   Mn2=0   Vn2=0   Vn3=0   CheckDefl="Program Determined" _
        DeflType="Program Determined"   DLRat=0   SDLAndLLRat=0   LLRat=0   TotalRat=0   NetRat=0   DLAbs=0   SDLAndLLAbs=0   LLAbs=0   TotalAbs=0   NetAbs=0   SpecCamber=0   DCLimit=0
   Frame=16   DesignSect="Program Determined"   FrameType="Program Determined"   Fy=0   RLLF=0   AreaRatio=0   XLMajor=0   XLMinor=0   XLLTB=0   K1Major=0   K1Minor=0   K2Major=0   K2Minor=0   KLTB=0   CmMajor=0   CmMinor=0   Cb=0 _
        B1Major=0   B1Minor=0   B2Major=0   B2Minor=0   HSSReduceT="Program Determined"   HSSWelding="Program Determined"   Omega0=0   Ry=0   Pnc=0   Pnt=0   Mn3=0   Mn2=0   Vn2=0   Vn3=0   CheckDefl="Program Determined" _
        DeflType="Program Determined"   DLRat=0   SDLAndLLRat=0   LLRat=0   TotalRat=0   NetRat=0   DLAbs=0   SDLAndLLAbs=0   LLAbs=0   TotalAbs=0   NetAbs=0   SpecCamber=0   DCLimit=0
   Frame=17   DesignSect="Program Determined"   FrameType="Program Determined"   Fy=0   RLLF=0   AreaRatio=0   XLMajor=0   XLMinor=0   XLLTB=0   K1Major=0   K1Minor=0   K2Major=0   K2Minor=0   KLTB=0   CmMajor=0   CmMinor=0   Cb=0 _
        B1Major=0   B1Minor=0   B2Major=0   B2Minor=0   HSSReduceT="Program Determined"   HSSWelding="Program Determined"   Omega0=0   Ry=0   Pnc=0   Pnt=0   Mn3=0   Mn2=0   Vn2=0   Vn3=0   CheckDefl="Program Determined" _
        DeflType="Program Determined"   DLRat=0   SDLAndLLRat=0   LLRat=0   TotalRat=0   NetRat=0   DLAbs=0   SDLAndLLAbs=0   LLAbs=0   TotalAbs=0   NetAbs=0   SpecCamber=0   DCLimit=0
   Frame=18   DesignSect="Program Determined"   FrameType="Program Determined"   Fy=0   RLLF=0   AreaRatio=0   XLMajor=0   XLMinor=0   XLLTB=0   K1Major=0   K1Minor=0   K2Major=0   K2Minor=0   KLTB=0   CmMajor=0   CmMinor=0   Cb=0 _
        B1Major=0   B1Minor=0   B2Major=0   B2Minor=0   HSSReduceT="Program Determined"   HSSWelding="Program Determined"   Omega0=0   Ry=0   Pnc=0   Pnt=0   Mn3=0   Mn2=0   Vn2=0   Vn3=0   CheckDefl="Program Determined" _
        DeflType="Program Determined"   DLRat=0   SDLAndLLRat=0   LLRat=0   TotalRat=0   NetRat=0   DLAbs=0   SDLAndLLAbs=0   LLAbs=0   TotalAbs=0   NetAbs=0   SpecCamber=0   DCLimit=0
   Frame=19   DesignSect="Program Determined"   FrameType="Program Determined"   Fy=0   RLLF=0   AreaRatio=0   XLMajor=0   XLMinor=0   XLLTB=0   K1Major=0   K1Minor=0   K2Major=0   K2Minor=0   KLTB=0   CmMajor=0   CmMinor=0   Cb=0 _
        B1Major=0   B1Minor=0   B2Major=0   B2Minor=0   HSSReduceT="Program Determined"   HSSWelding="Program Determined"   Omega0=0   Ry=0   Pnc=0   Pnt=0   Mn3=0   Mn2=0   Vn2=0   Vn3=0   CheckDefl="Program Determined" _
        DeflType="Program Determined"   DLRat=0   SDLAndLLRat=0   LLRat=0   TotalRat=0   NetRat=0   DLAbs=0   SDLAndLLAbs=0   LLAbs=0   TotalAbs=0   NetAbs=0   SpecCamber=0   DCLimit=0
   Frame=20   DesignSect="Program Determined"   FrameType="Program Determined"   Fy=0   RLLF=0   AreaRatio=0   XLMajor=0   XLMinor=0   XLLTB=0   K1Major=0   K1Minor=0   K2Major=0   K2Minor=0   KLTB=0   CmMajor=0   CmMinor=0   Cb=0 _
        B1Major=0   B1Minor=0   B2Major=0   B2Minor=0   HSSReduceT="Program Determined"   HSSWelding="Program Determined"   Omega0=0   Ry=0   Pnc=0   Pnt=0   Mn3=0   Mn2=0   Vn2=0   Vn3=0   CheckDefl="Program Determined" _
        DeflType="Program Determined"   DLRat=0   SDLAndLLRat=0   LLRat=0   TotalRat=0   NetRat=0   DLAbs=0   SDLAndLLAbs=0   LLAbs=0   TotalAbs=0   NetAbs=0   SpecCamber=0   DCLimit=0
# ... 228 like lines cut
 
TABLE:  "PREFERENCES - ALUMINUM DESIGN - AA 2015"
   THDesign=Envelopes   SRatioLimit=1   Provision=ASD   LatFact=1.33333333333333   UseLatFact=No   Bridge=No   OmegaTy=1.65   OmegaTr=1.95   OmegaC=1.65   OmegaBo=1.65   OmegaBr=1.95   OmegaVo=1.65   OmegaVr=1.95
 
TABLE:  "PREFERENCES - COLD FORMED DESIGN - AISI-ASD96"
   THDesign=Envelopes   FrameType="Moment Frame"   SRatioLimit=1   MaxIter=1   OmegaBS=1.67   OmegaBUS=1.67   OmegaBLTB=1.67   OmegaVS=1.67   OmegaVNS=1.5   OmegaT=1.67   OmegaC=1.8
 
TABLE:  "PREFERENCES - CONCRETE DESIGN - ACI 318-08/IBC2009"
   THDesign=Envelopes   NumCurves=24   NumPoints=11   MinEccen=Yes   PatLLF=0.75   UFLimit=0.95   Rho=1   Sds=0.5   PhiT=0.9   PhiCTied=0.65   PhiCSpiral=0.7   PhiV=0.75   PhiVSeismic=0.6   PhiVJoint=0.85   TanTheta=1
 
TABLE:  "PREFERENCES - CONCRETE SHELL DESIGN - EUROCODE 2-2004"
   Country="CEN Default"   GammaS=1.15   GammaC=1.5   AlphaCC=1   AlphaCT=1   CrackCond="Program Determined"   ShrDesMet="Method 1"   CotTheta=1   AddTenForce=Yes
 
TABLE:  "PREFERENCES - DIMENSIONAL"
   MergeTol=0.001   FineGrid=12   Nudge=12   SelectTol=3   SnapTol=12   SLineThick=1   PLineThick=4   MaxFont=8   MinFont=3   AutoZoom=10   ShrinkFact=70   TextFileLen=240
 
TABLE:  "PREFERENCES - STEEL DESIGN - AISC360-05-IBC2006"
   THDesign=Envelopes   FrameType=SMF   PatLLF=0.75   SRatioLimit=1   MaxIter=1   SDC=E   SeisCode=No   SeisLoad=No   ImpFactor=1   SystemRho=1   SystemSds=0.5   SystemR=8   SystemCd=5.5   Omega0=2.8   Provision=ASD _
        AMethod="Direct Analysis"   SOMethod="General 2nd Order"   SRMethod="Tau-b Fixed"   NLCoeff=0.002   OmegaB=1.67   OmegaC=1.67   OmegaTY=1.67   OmegaTF=2   OmegaV=1.67   OmegaVRolledI=1.5   OmegaVT=1.67   PlugWeld=Yes _
        HSSWelding=ERW   HSSReduceT=No   CheckDefl=No   DLRat=120   SDLAndLLRat=120   LLRat=360   TotalRat=240   NetRat=240
 
TABLE:  "PROGRAM CONTROL"
   ProgramName=SAP2000   Version=25.2.0   CurrUnits="lb, in, F"   SteelCode=AISC360-05/IBC2006   ConcCode="ACI 318-08/IBC2009"   AlumCode="AA 2015"   ColdCode=AISI-ASD96   RegenHinge=No
 
TABLE:  "PROJECT INFORMATION"
   Item="Company Name"   Data=CSI
   Item="Client Name"
   Item="Project Name"
   Item="Project Number"
   Item="Model Name"
   Item="Model Description"
   Item="Revision Number"
   Item="Frame Type"
   Item=Engineer
   Item=Checker
   Item=Supervisor
   Item="Issue Code"
   Item="Design Code"
 
TABLE:  "REBAR SIZES"
   RebarID=#2   Area=0.05   Diameter=0.25
   RebarID=#3   Area=0.109999999403954   Diameter=0.375
   RebarID=#4   Area=0.200000002980232   Diameter=0.5
   RebarID=#5   Area=0.310000002384186   Diameter=0.625
   RebarID=#6   Area=0.439999997615814   Diameter=0.75
   RebarID=#7   Area=0.600000023841858   Diameter=0.875
   RebarID=#8   Area=0.790000021457672   Diameter=1
   RebarID=#9   Area=1   Diameter=1.12800002098083
   RebarID=#10   Area=1.26999998092651   Diameter=1.26999998092651
   RebarID=#11   Area=1.55999994277954   Diameter=1.4099999666214
   RebarID=#14   Area=2.25   Diameter=1.692999958992
   RebarID=#18   Area=4   Diameter=2.25699996948242
   RebarID=10M   Area=0.155000316452672   Diameter=0.444881903954482
   RebarID=15M   Area=0.310000632905345   Diameter=0.629921269302988
   RebarID=20M   Area=0.465000949358017   Diameter=0.767716546963017
   RebarID=25M   Area=0.775001582263362   Diameter=0.992126029189193
   RebarID=30M   Area=1.08500221516871   Diameter=1.17716535699147
   RebarID=35M   Area=1.55000316452672   Diameter=1.40551186216928
   RebarID=45M   Area=2.32500474679009   Diameter=1.72047249682077
   RebarID=55M   Area=3.87500791131681   Diameter=2.22047253436701
   RebarID=6   Area=0.0438650883735477   Diameter=0.23622047598862
   RebarID=8   Area=0.0779651579931357   Diameter=0.314960634651494
   RebarID=10   Area=0.121675248415348   Diameter=0.393700793314367
   RebarID=12   Area=0.17515035759152   Diameter=0.472440951977241
   RebarID=14   Area=0.238700487337116   Diameter=0.551181110640114
   RebarID=16   Area=0.311550636069872   Diameter=0.629921269302988
   RebarID=20   Area=0.486700993661391   Diameter=0.787401586628735
   RebarID=25   Area=0.761051553782622   Diameter=0.984251983285919
   RebarID=26   Area=0.823051680363691   Diameter=1.02362206261736
   RebarID=28   Area=0.954801949348462   Diameter=1.10236222128023
 
TABLE:  "SOLID PROPERTY DEFINITIONS"
   SolidProp=SOLID1   Material=CONC   MatAngleA=0   MatAngleB=0   MatAngleC=0   InComp=Yes   Color=Cyan   GUID=d89e0545-ad49-4082-948b-3ebbf12ad173
 
TABLE:  "TABLES AUTOMATICALLY SAVED AFTER ANALYSIS"
   SaveFile=Yes   FileType=XML   FileName="Example 2-012a-thin.xml"   NamedSet=DBO1   Group=DBO1
 
TABLE:  "TENDON SECTION DEFINITIONS"
   TendonSect=TEN1   ModelOpt=Loads   PreType="Post Tension"   Material=A416Gr270   Specify=Area   Diameter=1.12837916709551   Area=1   Color=Green   AMod=1   A2Mod=1   A3Mod=1   JMod=1   I2Mod=1   I3Mod=1   MMod=1   WMod=1   GUID=d2b70265-3a7a-4d3f-bfed-0d7af99d5a7b
 
END TABLE DATA
