File \\greco-ce-cdot.ist.berkeley.edu\CEE_Students\Users\claudio_perez\Downloads\SAP2000\Analysis Examples\Example 1-021.$2k was saved on m/d/yy at h:mm:ss
 
TABLE:  "ACTIVE DEGREES OF FREEDOM"
   UX=Yes   UY=No   UZ=Yes   RX=No   RY=Yes   RZ=No
 
TABLE:  "ANALYSIS OPTIONS"
   Solver=Advanced   SolverProc=Auto   Force32Bit=No   StiffCase=None   GeomMod=None   HingeOpt="In Elements"   NumAThreads=0   MaxFileSize=0   NumDThreads=0   NumRThreads=0   UseMMFiles="Program Determined"   AllowDiff=No
 
TABLE:  "AREA SECTION PROPERTIES"
   Section=ASEC1   Material=CONC   MatAngle=0   AreaType=Shell   Type=Shell-Thin   DrillDOF=Yes   Thickness=1   BendThick=1   Color=White   F11Mod=1   F22Mod=1   F12Mod=1   M11Mod=1   M22Mod=1   M12Mod=1   V13Mod=1   V23Mod=1   MMod=1 _
        WMod=1   GUID=4a4cf9e9-205b-4cc0-b414-9c6794336f90
 
TABLE:  "AREA SECTION PROPERTY DESIGN PARAMETERS"
   Section=ASEC1   RebarMat=None   RebarOpt=Default
 
TABLE:  "AREA SECTION PROPERTY - TIME DEPENDENT"
   Section=ASEC1   TypeSize=User   AutoSFSize=1   UserValSize=0.328083989501312
 
TABLE:  "AUTO WAVE 3 - WAVE CHARACTERISTICS - GENERAL"
   WaveChar=Default   WaveType="From Theory"   KinFactor=1   SWaterDepth=1800   WaveHeight=720   WavePeriod=12   WaveTheory=Linear
 
TABLE:  "CABLE SECTION DEFINITIONS"
   CableSect=CAB1   Material=STEEL   Specify=Area   Diameter=0.0940315972579594   Area=0.00694444444444444   Color=Gray8Dark   AMod=1   A2Mod=1   A3Mod=1   JMod=1   I2Mod=1   I3Mod=1   MMod=1   WMod=1   GUID=56797305-2921-4fc4-bc42-4e0fc4a5f329
 
TABLE:  "CASE - MODAL 1 - GENERAL"
   Case=MODAL   ModeType=Eigen   MaxNumModes=3   MinNumModes=1   EigenShift=0   EigenCutoff=0   EigenTol=1E-07   AutoShift=No
 
TABLE:  "CONNECTIVITY - FRAME"
   Frame=1   JointI=1   JointJ=2   IsCurved=No   GUID=e7a2187a-4ee7-4a37-9c38-e7c9da586166
   Frame=2   JointI=2   JointJ=3   IsCurved=No   GUID=3cb75590-f0aa-4860-b016-cb36240fb070
   Frame=3   JointI=3   JointJ=4   IsCurved=No   GUID=ca5d0e1f-94d2-40bf-aec8-3b7cf40b0999
   Frame=4   JointI=4   JointJ=5   IsCurved=No   GUID=132d4d0f-06ff-4ace-a857-710c2451d88b
   Frame=5   JointI=5   JointJ=6   IsCurved=No   GUID=3ed50474-b7fe-4fbc-a9d8-02f5efeef544
   Frame=6   JointI=6   JointJ=7   IsCurved=No   GUID=fe160f3c-1834-4a3d-b81e-1b63c92670e9
   Frame=7   JointI=7   JointJ=8   IsCurved=No   GUID=5ff56743-1d6e-4685-837f-16a7b83becff
   Frame=8   JointI=8   JointJ=9   IsCurved=No   GUID=830ec3ec-e16a-401f-98c4-a1be6bad1ef0
   Frame=9   JointI=9   JointJ=10   IsCurved=No   GUID=b4ae3d25-16c5-4846-9997-b91213d0c2e2
   Frame=10   JointI=11   JointJ=12   IsCurved=No   GUID=e7ccd007-f677-4140-9a73-ed1f7fa3bc09
   Frame=11   JointI=12   JointJ=13   IsCurved=No   GUID=fc1da506-5b4b-4ac8-8398-f59240f05ad3
   Frame=12   JointI=13   JointJ=14   IsCurved=No   GUID=1aaf0357-a2dc-4ac0-9713-23f13b6b3535
   Frame=13   JointI=14   JointJ=15   IsCurved=No   GUID=4c91a0d6-01fe-432e-b24d-88a3bab5427c
   Frame=14   JointI=15   JointJ=16   IsCurved=No   GUID=dbaaee22-9bc9-423f-b009-2c41a9532817
   Frame=15   JointI=16   JointJ=17   IsCurved=No   GUID=6f1ee3d5-d0a6-4091-9571-aa6b90f62dc0
   Frame=16   JointI=17   JointJ=18   IsCurved=No   GUID=fc5b33a4-19b6-478f-b428-e8500617a6f5
   Frame=17   JointI=18   JointJ=19   IsCurved=No   GUID=db677537-c9bb-490b-befc-4ae029259a5d
   Frame=18   JointI=19   JointJ=20   IsCurved=No   GUID=1878dd56-0a4a-4c2a-b61d-833cfa136d68
   Frame=19   JointI=21   JointJ=22   IsCurved=No   GUID=2f74d2f6-c49a-428e-8131-63f541241b1f
   Frame=20   JointI=22   JointJ=23   IsCurved=No   GUID=1f99f538-47da-4d7f-9f61-0b7727d45d79
   Frame=21   JointI=23   JointJ=24   IsCurved=No   GUID=8236a714-81e7-46c9-920d-5ebbe7e3ad97
   Frame=22   JointI=24   JointJ=25   IsCurved=No   GUID=d07f79a8-b203-496f-9d24-4a37e59ea446
   Frame=23   JointI=25   JointJ=26   IsCurved=No   GUID=b32f8575-f2a6-4c87-be82-2d3a1139eb6e
   Frame=24   JointI=26   JointJ=27   IsCurved=No   GUID=33aa5ed0-c783-4e43-85ac-fc8d21fb3377
   Frame=25   JointI=27   JointJ=28   IsCurved=No   GUID=e18ccc58-fa79-40d3-9e96-4e6cf319f53e
   Frame=26   JointI=28   JointJ=29   IsCurved=No   GUID=e87c0cbb-57df-47f8-b2d0-f4049af99ca2
   Frame=27   JointI=29   JointJ=30   IsCurved=No   GUID=b4377ab6-c0a1-4886-ad36-22662c47caf3
   Frame=28   JointI=31   JointJ=32   IsCurved=No   GUID=8c54f8d4-86b1-4813-9fe2-46300ab990c8
   Frame=29   JointI=32   JointJ=33   IsCurved=No   GUID=cf6b5c24-7e8e-426a-9f1e-c5cf4cd95985
   Frame=30   JointI=33   JointJ=34   IsCurved=No   GUID=b5dd44e2-f944-495c-951e-2f8f47e25f55
   Frame=31   JointI=34   JointJ=35   IsCurved=No   GUID=00f110a6-d648-4f4d-a203-8e14a4f7b795
   Frame=32   JointI=35   JointJ=36   IsCurved=No   GUID=e1e1321e-44a4-47a7-a747-46088574105c
   Frame=33   JointI=36   JointJ=37   IsCurved=No   GUID=1a6d862c-ee4e-4d89-a27f-b76fc23949bb
   Frame=34   JointI=37   JointJ=38   IsCurved=No   GUID=6401bef9-11e4-4e12-9a49-e250b11a6fe4
   Frame=35   JointI=38   JointJ=39   IsCurved=No   GUID=13c12984-2638-4d92-93db-4be2311800f8
   Frame=36   JointI=39   JointJ=40   IsCurved=No   GUID=30221d3a-12a2-4f27-ba93-36a4ba24933e
   Frame=37   JointI=41   JointJ=42   IsCurved=No   GUID=f62609f6-b213-467e-aa2a-64a4ae77bb42
   Frame=38   JointI=42   JointJ=43   IsCurved=No   GUID=260387e8-e0de-4ab3-87de-4d953b9c7255
   Frame=39   JointI=43   JointJ=44   IsCurved=No   GUID=4be68a45-0f02-4b69-98af-a779100c8970
   Frame=40   JointI=44   JointJ=45   IsCurved=No   GUID=be483848-0704-4d1c-8590-c9fc44633ae0
   Frame=41   JointI=45   JointJ=46   IsCurved=No   GUID=f2a249eb-c0c3-47e6-b55b-0c779684782b
   Frame=42   JointI=46   JointJ=47   IsCurved=No   GUID=6946ca4e-053a-4067-853e-e4f8645ae703
   Frame=43   JointI=47   JointJ=48   IsCurved=No   GUID=c7f76051-854d-41bd-b469-b2ddd6534e49
   Frame=44   JointI=48   JointJ=49   IsCurved=No   GUID=631b93e4-da88-4ab7-a199-eeb63856f68f
   Frame=45   JointI=49   JointJ=50   IsCurved=No   GUID=edb7a13d-a557-4ed9-915e-69415c1bade4
   Frame=46   JointI=51   JointJ=52   IsCurved=No   GUID=61a1dc9f-abb3-4dfc-8453-a14652f09c0e
   Frame=47   JointI=52   JointJ=53   IsCurved=No   GUID=b4d3512a-2980-4e24-8f3a-dc06fbe13054
   Frame=48   JointI=53   JointJ=54   IsCurved=No   GUID=0e7311f7-f218-4561-af67-c443650aaaa0
   Frame=49   JointI=54   JointJ=55   IsCurved=No   GUID=362f1ba6-aa19-49f2-826b-4f451f24feb3
   Frame=50   JointI=55   JointJ=56   IsCurved=No   GUID=c5ef5d9b-2a7b-46e2-8105-42c6f0d0b6fe
   Frame=51   JointI=56   JointJ=57   IsCurved=No   GUID=587acfc4-bda3-45f3-8a04-13641af45e32
   Frame=52   JointI=57   JointJ=58   IsCurved=No   GUID=f9e89fb0-5a6c-4975-bf2e-84e9459903d1
   Frame=53   JointI=58   JointJ=59   IsCurved=No   GUID=06f2b9aa-54f1-43ee-9988-20a04e008c9d
   Frame=54   JointI=59   JointJ=60   IsCurved=No   GUID=86b37bde-bc1a-4fe9-82f8-06224bfe9a77
   Frame=55   JointI=61   JointJ=62   IsCurved=No   GUID=e0cc776b-85a3-44f5-9397-f69f141209da
   Frame=56   JointI=62   JointJ=63   IsCurved=No   GUID=9531e685-a4e3-49c4-9f2a-f19817d551f2
   Frame=57   JointI=63   JointJ=64   IsCurved=No   GUID=baaa6348-b97e-46f3-966b-d6060ac914c1
   Frame=58   JointI=64   JointJ=65   IsCurved=No   GUID=f4e55891-fdd9-491e-95d0-e8fd797a7d3f
   Frame=59   JointI=65   JointJ=66   IsCurved=No   GUID=21da498c-e4e2-40c0-a74c-f9dda33e3ba2
   Frame=60   JointI=66   JointJ=67   IsCurved=No   GUID=16fc9265-75c5-420e-a709-47172735e241
   Frame=61   JointI=67   JointJ=68   IsCurved=No   GUID=d4b38cb5-db4e-44a6-a1d5-b68eb652c8ae
   Frame=62   JointI=68   JointJ=69   IsCurved=No   GUID=001bac07-f356-4fec-9dd2-4cd4824f2415
   Frame=63   JointI=69   JointJ=70   IsCurved=No   GUID=bdbb6335-d33a-4043-9a0c-117885b1590b
   Frame=64   JointI=71   JointJ=72   IsCurved=No   GUID=7f082c91-bbf1-403f-8ef7-f792a675485b
   Frame=65   JointI=72   JointJ=73   IsCurved=No   GUID=2724afae-4d36-4612-a826-6f3107ec76ce
   Frame=66   JointI=73   JointJ=74   IsCurved=No   GUID=b8476bb6-fe5f-422c-8263-d4ffecb4ecf4
   Frame=67   JointI=74   JointJ=75   IsCurved=No   GUID=bb1d2373-8949-4c74-aa2b-d90a0df9d682
   Frame=68   JointI=75   JointJ=76   IsCurved=No   GUID=d3f1bc41-e4c8-412f-9947-64b085000238
   Frame=69   JointI=76   JointJ=77   IsCurved=No   GUID=7042878c-fb18-4389-ab61-3b27d5b183f8
   Frame=70   JointI=77   JointJ=78   IsCurved=No   GUID=1d1a9584-474a-4a78-9af9-88c3dc180503
   Frame=71   JointI=78   JointJ=79   IsCurved=No   GUID=69b01061-6f58-4288-991e-affa71f1b28c
   Frame=72   JointI=79   JointJ=80   IsCurved=No   GUID=119e43c7-69a0-4759-b024-4bf242e03874
   Frame=73   JointI=81   JointJ=82   IsCurved=No   GUID=9b283c99-8931-4662-abf2-1b713068929a
   Frame=74   JointI=82   JointJ=83   IsCurved=No   GUID=cc500490-6455-41c6-a34d-5e344c20cd15
   Frame=75   JointI=83   JointJ=84   IsCurved=No   GUID=6f9f5041-29fa-4c68-a4de-d9d97af8e488
   Frame=76   JointI=84   JointJ=85   IsCurved=No   GUID=a716d421-045c-40bc-95b3-26d6ab9ee9bd
   Frame=77   JointI=85   JointJ=86   IsCurved=No   GUID=820f183a-74e1-4b45-97a8-2364bf3be334
   Frame=78   JointI=86   JointJ=87   IsCurved=No   GUID=00997fbf-980f-4d17-80f3-476dea86b1ad
   Frame=79   JointI=87   JointJ=88   IsCurved=No   GUID=29b89e61-8b0a-4c51-8cfb-924256e9c90e
   Frame=80   JointI=88   JointJ=89   IsCurved=No   GUID=fa6f0b3b-14ea-4a82-928e-a570583cc71a
   Frame=81   JointI=89   JointJ=90   IsCurved=No   GUID=98464b6c-19d0-4898-b25e-436ffde15c37
   Frame=82   JointI=91   JointJ=92   IsCurved=No   GUID=2785018b-2a09-490a-83ea-98d370b6125a
   Frame=83   JointI=92   JointJ=93   IsCurved=No   GUID=6ae8cb2b-2982-47d7-9f68-8db0bc46bb10
   Frame=84   JointI=93   JointJ=94   IsCurved=No   GUID=aa69dd47-43df-4c03-8bae-195997b847d2
   Frame=85   JointI=94   JointJ=95   IsCurved=No   GUID=15fe287f-541d-44dc-abef-20e5a1bafc70
   Frame=86   JointI=95   JointJ=96   IsCurved=No   GUID=e4050170-96ab-40fd-b7ad-0664c1e95638
   Frame=87   JointI=96   JointJ=97   IsCurved=No   GUID=bc9f235a-df2f-4a62-9f32-6993d02fb30d
   Frame=88   JointI=97   JointJ=98   IsCurved=No   GUID=c7229af1-821d-41e9-9df6-ededa43d528f
   Frame=89   JointI=98   JointJ=99   IsCurved=No   GUID=d749d56f-d9af-4517-98f9-f56c0af7fe99
   Frame=90   JointI=99   JointJ=100   IsCurved=No   GUID=5a5c967c-03a9-4713-a14e-688ce6a202b8
   Frame=91   JointI=101   JointJ=102   IsCurved=No   GUID=a4206133-3b89-43e1-99d9-287e75a234e8
   Frame=92   JointI=102   JointJ=103   IsCurved=No   GUID=d5ab1be4-56a3-4c22-9312-00fad221563b
   Frame=93   JointI=103   JointJ=104   IsCurved=No   GUID=64798593-8f38-4e47-9775-b574446811c4
   Frame=94   JointI=104   JointJ=105   IsCurved=No   GUID=f8a23715-0f8d-472c-a768-8e9eb688f7af
   Frame=95   JointI=105   JointJ=106   IsCurved=No   GUID=8a3c4f70-241b-4904-9c0d-47b2c8bbf6b7
   Frame=96   JointI=106   JointJ=107   IsCurved=No   GUID=ea2f6382-f29a-4e7f-8f1e-d71226535d03
   Frame=97   JointI=107   JointJ=108   IsCurved=No   GUID=19545d6e-8798-41dc-953e-e311343fbbcf
   Frame=98   JointI=108   JointJ=109   IsCurved=No   GUID=a694f0f6-f7a7-4d39-b391-dc933cc22948
   Frame=99   JointI=109   JointJ=110   IsCurved=No   GUID=06e8a6d3-30e3-4ac2-8641-51439f31b814
   Frame=100   JointI=2   JointJ=12   IsCurved=No   GUID=b9a23ec5-0948-489b-94e1-21ea268599bb
   Frame=101   JointI=3   JointJ=13   IsCurved=No   GUID=ed9908e5-2abe-435e-a6a3-52a82b61ba85
   Frame=102   JointI=4   JointJ=14   IsCurved=No   GUID=0a1d5fad-de45-4c01-8da6-a14633eca65d
   Frame=103   JointI=5   JointJ=15   IsCurved=No   GUID=4fa0fdf8-63fa-4cb3-9089-04e67f3334e0
   Frame=104   JointI=6   JointJ=16   IsCurved=No   GUID=349b0a1a-01f8-4dde-8c05-bf9f70dccc33
   Frame=105   JointI=7   JointJ=17   IsCurved=No   GUID=e4060e3e-1f0e-4727-8855-5e8174e9961f
   Frame=106   JointI=8   JointJ=18   IsCurved=No   GUID=e5dd8f77-f50a-4cdc-b7eb-9ea757f014eb
   Frame=107   JointI=9   JointJ=19   IsCurved=No   GUID=17a892ad-aedc-46fb-a997-9b700732a9a2
   Frame=108   JointI=10   JointJ=20   IsCurved=No   GUID=c7a39d82-bade-4772-94b1-0fb38c463038
   Frame=109   JointI=12   JointJ=22   IsCurved=No   GUID=f9ddf338-6f6a-467f-a329-9a2411e43d85
   Frame=110   JointI=13   JointJ=23   IsCurved=No   GUID=e84f204f-00b7-4c87-bd33-b06beee1f49a
   Frame=111   JointI=14   JointJ=24   IsCurved=No   GUID=5ac59c5d-97d2-4b84-a58a-c72ea882929c
   Frame=112   JointI=15   JointJ=25   IsCurved=No   GUID=09ea529b-e58d-490e-ad87-16806dab30c5
   Frame=113   JointI=16   JointJ=26   IsCurved=No   GUID=09b1733c-1b73-4196-a2a8-5cc96b32dc14
   Frame=114   JointI=17   JointJ=27   IsCurved=No   GUID=d6404b42-c051-4f61-b145-fbd57c7715b6
   Frame=115   JointI=18   JointJ=28   IsCurved=No   GUID=6dbbd80f-9eae-4538-8f46-12bfdfe7ff30
   Frame=116   JointI=19   JointJ=29   IsCurved=No   GUID=babcb96a-cfcb-4faa-936b-e805be2cc70f
   Frame=117   JointI=20   JointJ=30   IsCurved=No   GUID=29ab5d2c-2373-4b2f-a39d-aa5579e1dfa3
   Frame=118   JointI=22   JointJ=32   IsCurved=No   GUID=508a3c01-8e53-459f-8e80-32731baf9d8d
   Frame=119   JointI=23   JointJ=33   IsCurved=No   GUID=f8f00f60-c74b-47e3-af5e-28b7b79b447e
   Frame=120   JointI=24   JointJ=34   IsCurved=No   GUID=83112d5d-397d-4eea-b83f-099ca2ea00b6
   Frame=121   JointI=25   JointJ=35   IsCurved=No   GUID=35e2bd56-ad03-4b9b-95ec-99c636bd7a30
   Frame=122   JointI=26   JointJ=36   IsCurved=No   GUID=6024ab65-726b-4758-b441-7310190e763f
   Frame=123   JointI=27   JointJ=37   IsCurved=No   GUID=03863869-eeca-48de-a440-f439b7f20d71
   Frame=124   JointI=28   JointJ=38   IsCurved=No   GUID=85204c2c-02b8-4089-98c9-2d9f8ab3b950
   Frame=125   JointI=29   JointJ=39   IsCurved=No   GUID=be7bb360-5fef-43c1-9be4-56d6b0dd3259
   Frame=126   JointI=30   JointJ=40   IsCurved=No   GUID=91c5a180-e7ea-4bb8-a89e-cbb6d82ac528
   Frame=127   JointI=32   JointJ=42   IsCurved=No   GUID=8d4a5085-7900-4136-b74c-2fa158ca7125
   Frame=128   JointI=33   JointJ=43   IsCurved=No   GUID=ec75dc90-ba42-4f20-babc-9961aae84245
   Frame=129   JointI=34   JointJ=44   IsCurved=No   GUID=0abe21d9-74a2-4960-b3e1-73e42ace2a68
   Frame=130   JointI=35   JointJ=45   IsCurved=No   GUID=08548422-c30d-4078-914c-b46f07a1b119
   Frame=131   JointI=36   JointJ=46   IsCurved=No   GUID=98de69c5-9734-4208-ae26-e5cb3f58348e
   Frame=132   JointI=37   JointJ=47   IsCurved=No   GUID=7a3d3ac3-7f1f-4f39-b703-7b934da20c3a
   Frame=133   JointI=38   JointJ=48   IsCurved=No   GUID=0cdf50b6-97c4-44df-8767-5d49273ef584
   Frame=134   JointI=39   JointJ=49   IsCurved=No   GUID=5a889c7b-bf0b-4cd5-a586-84151243a0f7
   Frame=135   JointI=40   JointJ=50   IsCurved=No   GUID=352b5431-c1c3-4c38-864d-a1ed4ff96250
   Frame=136   JointI=42   JointJ=52   IsCurved=No   GUID=f65fc955-5fc1-46c8-a999-3a2104099ccf
   Frame=137   JointI=43   JointJ=53   IsCurved=No   GUID=71327b37-cc8d-4ff7-abfd-a9b291a3ba2f
   Frame=138   JointI=44   JointJ=54   IsCurved=No   GUID=9c9e7cbf-e927-49fe-a1b2-cff0023ed4bb
   Frame=139   JointI=45   JointJ=55   IsCurved=No   GUID=996627fc-f66d-4f36-90cf-ffaae7a3e5f2
   Frame=140   JointI=46   JointJ=56   IsCurved=No   GUID=dec6df38-f879-49b5-90c0-2c0f2e952497
   Frame=141   JointI=47   JointJ=57   IsCurved=No   GUID=ac3447a6-6b13-4d51-b84c-19ddeeeacb68
   Frame=142   JointI=48   JointJ=58   IsCurved=No   GUID=b65da44e-5175-4570-b588-1feaa37657c2
   Frame=143   JointI=49   JointJ=59   IsCurved=No   GUID=851668ff-5403-438f-8767-f31e7fd48a15
   Frame=144   JointI=50   JointJ=60   IsCurved=No   GUID=34475af4-be3f-47a5-a982-ca133d217c24
   Frame=145   JointI=52   JointJ=62   IsCurved=No   GUID=735bd9d8-9566-49bd-94b3-886f0648b430
   Frame=146   JointI=53   JointJ=63   IsCurved=No   GUID=77084f63-cfee-4744-b548-a55951c9b474
   Frame=147   JointI=54   JointJ=64   IsCurved=No   GUID=56752c3a-4f72-4904-8cb3-99b7b492a95e
   Frame=148   JointI=55   JointJ=65   IsCurved=No   GUID=9d2bf5c9-514b-4ad0-9bb2-3cdfeb3be278
   Frame=149   JointI=56   JointJ=66   IsCurved=No   GUID=794e8374-c128-4027-9c7a-055972d8e06d
   Frame=150   JointI=57   JointJ=67   IsCurved=No   GUID=b96db3d9-27d0-4cc0-a1d1-9fd426272853
   Frame=151   JointI=58   JointJ=68   IsCurved=No   GUID=a45dd1b0-4e35-4b96-9c97-3a45bb8c0c90
   Frame=152   JointI=59   JointJ=69   IsCurved=No   GUID=e2409dc3-b479-449a-9985-8e83364a60fa
   Frame=153   JointI=60   JointJ=70   IsCurved=No   GUID=639e3808-5b81-468a-9852-f4c148b45ac5
   Frame=154   JointI=62   JointJ=72   IsCurved=No   GUID=c0743c0a-9126-4f8a-ba44-bb17be2ee83f
   Frame=155   JointI=63   JointJ=73   IsCurved=No   GUID=924a29bc-7f98-4017-8c6d-46ce2e803276
   Frame=156   JointI=64   JointJ=74   IsCurved=No   GUID=2a4572da-7d8e-4ca4-892a-c5231b57fb02
   Frame=157   JointI=65   JointJ=75   IsCurved=No   GUID=c48d9edf-bf95-4416-90e6-05db48fcbace
   Frame=158   JointI=66   JointJ=76   IsCurved=No   GUID=3660ed9e-012e-4e33-84df-7060cd607bd4
   Frame=159   JointI=67   JointJ=77   IsCurved=No   GUID=5c6cae27-343e-4c34-8734-64302c4b6802
   Frame=160   JointI=68   JointJ=78   IsCurved=No   GUID=8cb4c7a3-8ac0-46fd-9aa4-d9d3f94e1f12
   Frame=161   JointI=69   JointJ=79   IsCurved=No   GUID=ba6ac2f2-2992-4223-9835-37f8ddd90fe2
   Frame=162   JointI=70   JointJ=80   IsCurved=No   GUID=1516743f-a184-44a3-af40-1d41b170d001
   Frame=163   JointI=72   JointJ=82   IsCurved=No   GUID=1848af5b-9b26-4d9f-87d9-ce61705bcdd2
   Frame=164   JointI=73   JointJ=83   IsCurved=No   GUID=2547b67d-fc9e-4036-a08b-0c8e9c913f19
   Frame=165   JointI=74   JointJ=84   IsCurved=No   GUID=501a1063-3282-4ed7-a759-799cdb492098
   Frame=166   JointI=75   JointJ=85   IsCurved=No   GUID=b0949bd7-e6f7-4851-a132-3885408e07b2
   Frame=167   JointI=76   JointJ=86   IsCurved=No   GUID=1ee9c242-019d-4ed0-9cb1-5e606cfc215b
   Frame=168   JointI=77   JointJ=87   IsCurved=No   GUID=47fa06e4-c3e7-4a70-b871-e70de41c8041
   Frame=169   JointI=78   JointJ=88   IsCurved=No   GUID=802971a5-85a7-46eb-b35a-46fe36f55878
   Frame=170   JointI=79   JointJ=89   IsCurved=No   GUID=c1a63ec8-f189-44da-9942-58a243fbda91
   Frame=171   JointI=80   JointJ=90   IsCurved=No   GUID=8d0885bb-2d8e-448f-ada6-8b05b000695d
   Frame=172   JointI=82   JointJ=92   IsCurved=No   GUID=d6bbdcd0-15d1-4f0f-be23-2040c90ed24f
   Frame=173   JointI=83   JointJ=93   IsCurved=No   GUID=320d2d30-a84e-4924-b381-72b491511314
   Frame=174   JointI=84   JointJ=94   IsCurved=No   GUID=d2b777a6-50c7-4697-8fe7-32ce61d8a6a8
   Frame=175   JointI=85   JointJ=95   IsCurved=No   GUID=c203cb21-aa03-4678-96fe-77664501fd72
   Frame=176   JointI=86   JointJ=96   IsCurved=No   GUID=4df9b618-a40d-4815-988d-d806bf7227ff
   Frame=177   JointI=87   JointJ=97   IsCurved=No   GUID=5a9b8c2e-5713-44b1-9a7a-84eff2220dda
   Frame=178   JointI=88   JointJ=98   IsCurved=No   GUID=d73f8596-4f1d-4651-8ca1-7bf60df18dc6
   Frame=179   JointI=89   JointJ=99   IsCurved=No   GUID=d508d78d-8d05-421d-b10b-d927b080b5c9
   Frame=180   JointI=90   JointJ=100   IsCurved=No   GUID=6e582d8b-c3c6-4357-8572-8c2374d698d8
   Frame=181   JointI=92   JointJ=102   IsCurved=No   GUID=c2a907cb-d6b4-4329-899b-433edf5b238e
   Frame=182   JointI=93   JointJ=103   IsCurved=No   GUID=9c2828bc-f35e-4fc9-9714-4aade1463552
   Frame=183   JointI=94   JointJ=104   IsCurved=No   GUID=681df599-659e-4f37-8adc-35e993c52705
   Frame=184   JointI=95   JointJ=105   IsCurved=No   GUID=cf01d103-533d-4b6a-87b9-839eed6b54ef
   Frame=185   JointI=96   JointJ=106   IsCurved=No   GUID=70bc2c18-62e7-4c6d-99e0-bd1550d172a8
   Frame=186   JointI=97   JointJ=107   IsCurved=No   GUID=a443be9d-a5e0-4cfb-8477-1df86a4f37b8
   Frame=187   JointI=98   JointJ=108   IsCurved=No   GUID=8d49c531-bffc-41f9-b548-8665d799057a
   Frame=188   JointI=99   JointJ=109   IsCurved=No   GUID=26110101-cbea-40b9-ad80-0cfdf3cec284
   Frame=189   JointI=100   JointJ=110   IsCurved=No   GUID=a2bdfef0-adb7-4732-88cc-e4f632044095
 
TABLE:  "COORDINATE SYSTEMS"
   Name=GLOBAL   Type=Cartesian   X=0   Y=0   Z=0   AboutZ=0   AboutY=0   AboutX=0
 
TABLE:  "DATABASE DOCUMENTATION"
 
TABLE:  "DATABASE FORMAT TYPES"
   UnitsCurr=Yes   OverrideE=No
 
TABLE:  "FRAME ADDED MASS ASSIGNMENTS"
   Frame=1   MassPerLen=3
   Frame=2   MassPerLen=3
   Frame=3   MassPerLen=3
   Frame=4   MassPerLen=3
   Frame=5   MassPerLen=3
   Frame=6   MassPerLen=3
   Frame=7   MassPerLen=3
   Frame=8   MassPerLen=3
   Frame=9   MassPerLen=3
   Frame=10   MassPerLen=3
   Frame=11   MassPerLen=3
   Frame=12   MassPerLen=3
   Frame=13   MassPerLen=3
   Frame=14   MassPerLen=3
   Frame=15   MassPerLen=3
   Frame=16   MassPerLen=3
   Frame=17   MassPerLen=3
   Frame=18   MassPerLen=3
   Frame=19   MassPerLen=3
   Frame=20   MassPerLen=3
# ... 169 like lines cut
 
TABLE:  "FRAME AUTO MESH ASSIGNMENTS"
   Frame=1   AutoMesh=No   AtJoints=No   AtFrames=No   NumSegments=0   MaxLength=0   MaxDegrees=0
   Frame=2   AutoMesh=No   AtJoints=No   AtFrames=No   NumSegments=0   MaxLength=0   MaxDegrees=0
   Frame=3   AutoMesh=No   AtJoints=No   AtFrames=No   NumSegments=0   MaxLength=0   MaxDegrees=0
   Frame=4   AutoMesh=No   AtJoints=No   AtFrames=No   NumSegments=0   MaxLength=0   MaxDegrees=0
   Frame=5   AutoMesh=No   AtJoints=No   AtFrames=No   NumSegments=0   MaxLength=0   MaxDegrees=0
   Frame=6   AutoMesh=No   AtJoints=No   AtFrames=No   NumSegments=0   MaxLength=0   MaxDegrees=0
   Frame=7   AutoMesh=No   AtJoints=No   AtFrames=No   NumSegments=0   MaxLength=0   MaxDegrees=0
   Frame=8   AutoMesh=No   AtJoints=No   AtFrames=No   NumSegments=0   MaxLength=0   MaxDegrees=0
   Frame=9   AutoMesh=No   AtJoints=No   AtFrames=No   NumSegments=0   MaxLength=0   MaxDegrees=0
   Frame=10   AutoMesh=No   AtJoints=No   AtFrames=No   NumSegments=0   MaxLength=0   MaxDegrees=0
   Frame=11   AutoMesh=No   AtJoints=No   AtFrames=No   NumSegments=0   MaxLength=0   MaxDegrees=0
   Frame=12   AutoMesh=No   AtJoints=No   AtFrames=No   NumSegments=0   MaxLength=0   MaxDegrees=0
   Frame=13   AutoMesh=No   AtJoints=No   AtFrames=No   NumSegments=0   MaxLength=0   MaxDegrees=0
   Frame=14   AutoMesh=No   AtJoints=No   AtFrames=No   NumSegments=0   MaxLength=0   MaxDegrees=0
   Frame=15   AutoMesh=No   AtJoints=No   AtFrames=No   NumSegments=0   MaxLength=0   MaxDegrees=0
   Frame=16   AutoMesh=No   AtJoints=No   AtFrames=No   NumSegments=0   MaxLength=0   MaxDegrees=0
   Frame=17   AutoMesh=No   AtJoints=No   AtFrames=No   NumSegments=0   MaxLength=0   MaxDegrees=0
   Frame=18   AutoMesh=No   AtJoints=No   AtFrames=No   NumSegments=0   MaxLength=0   MaxDegrees=0
   Frame=19   AutoMesh=No   AtJoints=No   AtFrames=No   NumSegments=0   MaxLength=0   MaxDegrees=0
   Frame=20   AutoMesh=No   AtJoints=No   AtFrames=No   NumSegments=0   MaxLength=0   MaxDegrees=0
# ... 169 like lines cut
 
TABLE:  "FRAME DESIGN PROCEDURES"
   Frame=1   DesignProc="No Design"
   Frame=2   DesignProc="No Design"
   Frame=3   DesignProc="No Design"
   Frame=4   DesignProc="No Design"
   Frame=5   DesignProc="No Design"
   Frame=6   DesignProc="No Design"
   Frame=7   DesignProc="No Design"
   Frame=8   DesignProc="No Design"
   Frame=9   DesignProc="No Design"
   Frame=10   DesignProc="No Design"
   Frame=11   DesignProc="No Design"
   Frame=12   DesignProc="No Design"
   Frame=13   DesignProc="No Design"
   Frame=14   DesignProc="No Design"
   Frame=15   DesignProc="No Design"
   Frame=16   DesignProc="No Design"
   Frame=17   DesignProc="No Design"
   Frame=18   DesignProc="No Design"
   Frame=19   DesignProc="No Design"
   Frame=20   DesignProc="No Design"
# ... 169 like lines cut
 
TABLE:  "FRAME INSERTION POINT ASSIGNMENTS"
   Frame=1   CardinalPt="10 (centroid)"   Mirror2=No   Mirror3=No   Transform=No
   Frame=2   CardinalPt="10 (centroid)"   Mirror2=No   Mirror3=No   Transform=No
   Frame=3   CardinalPt="10 (centroid)"   Mirror2=No   Mirror3=No   Transform=No
   Frame=4   CardinalPt="10 (centroid)"   Mirror2=No   Mirror3=No   Transform=No
   Frame=5   CardinalPt="10 (centroid)"   Mirror2=No   Mirror3=No   Transform=No
   Frame=6   CardinalPt="10 (centroid)"   Mirror2=No   Mirror3=No   Transform=No
   Frame=7   CardinalPt="10 (centroid)"   Mirror2=No   Mirror3=No   Transform=No
   Frame=8   CardinalPt="10 (centroid)"   Mirror2=No   Mirror3=No   Transform=No
   Frame=9   CardinalPt="10 (centroid)"   Mirror2=No   Mirror3=No   Transform=No
   Frame=10   CardinalPt="10 (centroid)"   Mirror2=No   Mirror3=No   Transform=No
   Frame=11   CardinalPt="10 (centroid)"   Mirror2=No   Mirror3=No   Transform=No
   Frame=12   CardinalPt="10 (centroid)"   Mirror2=No   Mirror3=No   Transform=No
   Frame=13   CardinalPt="10 (centroid)"   Mirror2=No   Mirror3=No   Transform=No
   Frame=14   CardinalPt="10 (centroid)"   Mirror2=No   Mirror3=No   Transform=No
   Frame=15   CardinalPt="10 (centroid)"   Mirror2=No   Mirror3=No   Transform=No
   Frame=16   CardinalPt="10 (centroid)"   Mirror2=No   Mirror3=No   Transform=No
   Frame=17   CardinalPt="10 (centroid)"   Mirror2=No   Mirror3=No   Transform=No
   Frame=18   CardinalPt="10 (centroid)"   Mirror2=No   Mirror3=No   Transform=No
   Frame=19   CardinalPt="10 (centroid)"   Mirror2=No   Mirror3=No   Transform=No
   Frame=20   CardinalPt="10 (centroid)"   Mirror2=No   Mirror3=No   Transform=No
# ... 169 like lines cut
 
TABLE:  "FRAME LOAD TRANSFER OPTIONS"
   Frame=1   Transfer=Yes
   Frame=2   Transfer=Yes
   Frame=3   Transfer=Yes
   Frame=4   Transfer=Yes
   Frame=5   Transfer=Yes
   Frame=6   Transfer=Yes
   Frame=7   Transfer=Yes
   Frame=8   Transfer=Yes
   Frame=9   Transfer=Yes
   Frame=10   Transfer=Yes
   Frame=11   Transfer=Yes
   Frame=12   Transfer=Yes
   Frame=13   Transfer=Yes
   Frame=14   Transfer=Yes
   Frame=15   Transfer=Yes
   Frame=16   Transfer=Yes
   Frame=17   Transfer=Yes
   Frame=18   Transfer=Yes
   Frame=19   Transfer=Yes
   Frame=20   Transfer=Yes
# ... 169 like lines cut
 
TABLE:  "FRAME OUTPUT STATION ASSIGNMENTS"
   Frame=1   StationType=MinNumSta   MinNumSta=3   AddAtElmInt=Yes   AddAtPtLoad=Yes
   Frame=2   StationType=MinNumSta   MinNumSta=3   AddAtElmInt=Yes   AddAtPtLoad=Yes
   Frame=3   StationType=MinNumSta   MinNumSta=3   AddAtElmInt=Yes   AddAtPtLoad=Yes
   Frame=4   StationType=MinNumSta   MinNumSta=3   AddAtElmInt=Yes   AddAtPtLoad=Yes
   Frame=5   StationType=MinNumSta   MinNumSta=3   AddAtElmInt=Yes   AddAtPtLoad=Yes
   Frame=6   StationType=MinNumSta   MinNumSta=3   AddAtElmInt=Yes   AddAtPtLoad=Yes
   Frame=7   StationType=MinNumSta   MinNumSta=3   AddAtElmInt=Yes   AddAtPtLoad=Yes
   Frame=8   StationType=MinNumSta   MinNumSta=3   AddAtElmInt=Yes   AddAtPtLoad=Yes
   Frame=9   StationType=MinNumSta   MinNumSta=3   AddAtElmInt=Yes   AddAtPtLoad=Yes
   Frame=10   StationType=MinNumSta   MinNumSta=3   AddAtElmInt=Yes   AddAtPtLoad=Yes
   Frame=11   StationType=MinNumSta   MinNumSta=3   AddAtElmInt=Yes   AddAtPtLoad=Yes
   Frame=12   StationType=MinNumSta   MinNumSta=3   AddAtElmInt=Yes   AddAtPtLoad=Yes
   Frame=13   StationType=MinNumSta   MinNumSta=3   AddAtElmInt=Yes   AddAtPtLoad=Yes
   Frame=14   StationType=MinNumSta   MinNumSta=3   AddAtElmInt=Yes   AddAtPtLoad=Yes
   Frame=15   StationType=MinNumSta   MinNumSta=3   AddAtElmInt=Yes   AddAtPtLoad=Yes
   Frame=16   StationType=MinNumSta   MinNumSta=3   AddAtElmInt=Yes   AddAtPtLoad=Yes
   Frame=17   StationType=MinNumSta   MinNumSta=3   AddAtElmInt=Yes   AddAtPtLoad=Yes
   Frame=18   StationType=MinNumSta   MinNumSta=3   AddAtElmInt=Yes   AddAtPtLoad=Yes
   Frame=19   StationType=MinNumSta   MinNumSta=3   AddAtElmInt=Yes   AddAtPtLoad=Yes
   Frame=20   StationType=MinNumSta   MinNumSta=3   AddAtElmInt=Yes   AddAtPtLoad=Yes
# ... 79 like lines cut
   Frame=100   StationType=MaxStaSpcg   MaxStaSpcg=2   AddAtElmInt=Yes   AddAtPtLoad=Yes
   Frame=101   StationType=MaxStaSpcg   MaxStaSpcg=2   AddAtElmInt=Yes   AddAtPtLoad=Yes
   Frame=102   StationType=MaxStaSpcg   MaxStaSpcg=2   AddAtElmInt=Yes   AddAtPtLoad=Yes
   Frame=103   StationType=MaxStaSpcg   MaxStaSpcg=2   AddAtElmInt=Yes   AddAtPtLoad=Yes
   Frame=104   StationType=MaxStaSpcg   MaxStaSpcg=2   AddAtElmInt=Yes   AddAtPtLoad=Yes
   Frame=105   StationType=MaxStaSpcg   MaxStaSpcg=2   AddAtElmInt=Yes   AddAtPtLoad=Yes
   Frame=106   StationType=MaxStaSpcg   MaxStaSpcg=2   AddAtElmInt=Yes   AddAtPtLoad=Yes
   Frame=107   StationType=MaxStaSpcg   MaxStaSpcg=2   AddAtElmInt=Yes   AddAtPtLoad=Yes
   Frame=108   StationType=MaxStaSpcg   MaxStaSpcg=2   AddAtElmInt=Yes   AddAtPtLoad=Yes
   Frame=109   StationType=MaxStaSpcg   MaxStaSpcg=2   AddAtElmInt=Yes   AddAtPtLoad=Yes
   Frame=110   StationType=MaxStaSpcg   MaxStaSpcg=2   AddAtElmInt=Yes   AddAtPtLoad=Yes
   Frame=111   StationType=MaxStaSpcg   MaxStaSpcg=2   AddAtElmInt=Yes   AddAtPtLoad=Yes
   Frame=112   StationType=MaxStaSpcg   MaxStaSpcg=2   AddAtElmInt=Yes   AddAtPtLoad=Yes
   Frame=113   StationType=MaxStaSpcg   MaxStaSpcg=2   AddAtElmInt=Yes   AddAtPtLoad=Yes
   Frame=114   StationType=MaxStaSpcg   MaxStaSpcg=2   AddAtElmInt=Yes   AddAtPtLoad=Yes
   Frame=115   StationType=MaxStaSpcg   MaxStaSpcg=2   AddAtElmInt=Yes   AddAtPtLoad=Yes
   Frame=116   StationType=MaxStaSpcg   MaxStaSpcg=2   AddAtElmInt=Yes   AddAtPtLoad=Yes
   Frame=117   StationType=MaxStaSpcg   MaxStaSpcg=2   AddAtElmInt=Yes   AddAtPtLoad=Yes
   Frame=118   StationType=MaxStaSpcg   MaxStaSpcg=2   AddAtElmInt=Yes   AddAtPtLoad=Yes
   Frame=119   StationType=MaxStaSpcg   MaxStaSpcg=2   AddAtElmInt=Yes   AddAtPtLoad=Yes
# ... 70 like lines cut
 
TABLE:  "FRAME SECTION ASSIGNMENTS"
   Frame=1   AutoSelect=N.A.   AnalSect=FSEC1   MatProp=Default
   Frame=2   AutoSelect=N.A.   AnalSect=FSEC1   MatProp=Default
   Frame=3   AutoSelect=N.A.   AnalSect=FSEC1   MatProp=Default
   Frame=4   AutoSelect=N.A.   AnalSect=FSEC1   MatProp=Default
   Frame=5   AutoSelect=N.A.   AnalSect=FSEC1   MatProp=Default
   Frame=6   AutoSelect=N.A.   AnalSect=FSEC1   MatProp=Default
   Frame=7   AutoSelect=N.A.   AnalSect=FSEC1   MatProp=Default
   Frame=8   AutoSelect=N.A.   AnalSect=FSEC1   MatProp=Default
   Frame=9   AutoSelect=N.A.   AnalSect=FSEC1   MatProp=Default
   Frame=10   AutoSelect=N.A.   AnalSect=FSEC1   MatProp=Default
   Frame=11   AutoSelect=N.A.   AnalSect=FSEC1   MatProp=Default
   Frame=12   AutoSelect=N.A.   AnalSect=FSEC1   MatProp=Default
   Frame=13   AutoSelect=N.A.   AnalSect=FSEC1   MatProp=Default
   Frame=14   AutoSelect=N.A.   AnalSect=FSEC1   MatProp=Default
   Frame=15   AutoSelect=N.A.   AnalSect=FSEC1   MatProp=Default
   Frame=16   AutoSelect=N.A.   AnalSect=FSEC1   MatProp=Default
   Frame=17   AutoSelect=N.A.   AnalSect=FSEC1   MatProp=Default
   Frame=18   AutoSelect=N.A.   AnalSect=FSEC1   MatProp=Default
   Frame=19   AutoSelect=N.A.   AnalSect=FSEC1   MatProp=Default
   Frame=20   AutoSelect=N.A.   AnalSect=FSEC1   MatProp=Default
# ... 169 like lines cut
 
TABLE:  "FRAME SECTION PROPERTIES 01 - GENERAL"
   SectionName=FSEC1   Material=CONC   Shape=General   t3=1   t2=1   Area=3   TorsConst=0   I33=1   I22=0   I23=0   AS2=0   AS3=0   S33Top=0   S33Bot=0   S22Left=0   S22Right=0   Z33=0   Z22=0   R33=0   R22=0   CGOffset3=0   CGOffset2=0 _
        EccV2=0   EccV3=0   Cw=0   IncludeSCAn=Yes   Color=Green   FromFile=No   AMod=1   A2Mod=1   A3Mod=1   JMod=1   I2Mod=1   I3Mod=1   MMod=1   WMod=1   GUID=971b320f-e5a3-4fd9-bcf5-4a782766ea3c
 
TABLE:  "FRAME SECTION PROPERTIES 13 - TIME DEPENDENT"
   SectionName=FSEC1   TypeSize=None   UserValSize=0.328083989501312
 
TABLE:  "FUNCTION - PLOT FUNCTIONS"
   PlotFunc="Input Energy"   Type=Energy   Component=Input   Mode=All
 
TABLE:  "GRID LINES"
   CoordSys=GLOBAL   AxisDir=X   XRYZCoord=-100   LineType=Primary   LineColor=Gray8Dark   Visible=Yes   BubbleLoc=End   AllVisible=No   BubbleSize=4
   CoordSys=GLOBAL   AxisDir=X   XRYZCoord=-80   LineType=Primary   LineColor=Gray8Dark   Visible=Yes   BubbleLoc=End
   CoordSys=GLOBAL   AxisDir=X   XRYZCoord=-60   LineType=Primary   LineColor=Gray8Dark   Visible=Yes   BubbleLoc=End
   CoordSys=GLOBAL   AxisDir=X   XRYZCoord=-40   LineType=Primary   LineColor=Gray8Dark   Visible=Yes   BubbleLoc=End
   CoordSys=GLOBAL   AxisDir=X   XRYZCoord=-20   LineType=Primary   LineColor=Gray8Dark   Visible=Yes   BubbleLoc=End
   CoordSys=GLOBAL   AxisDir=X   XRYZCoord=0   LineType=Primary   LineColor=Gray8Dark   Visible=Yes   BubbleLoc=End
   CoordSys=GLOBAL   AxisDir=X   XRYZCoord=20   LineType=Primary   LineColor=Gray8Dark   Visible=Yes   BubbleLoc=End
   CoordSys=GLOBAL   AxisDir=X   XRYZCoord=40   LineType=Primary   LineColor=Gray8Dark   Visible=Yes   BubbleLoc=End
   CoordSys=GLOBAL   AxisDir=X   XRYZCoord=60   LineType=Primary   LineColor=Gray8Dark   Visible=Yes   BubbleLoc=End
   CoordSys=GLOBAL   AxisDir=X   XRYZCoord=80   LineType=Primary   LineColor=Gray8Dark   Visible=Yes   BubbleLoc=End
   CoordSys=GLOBAL   AxisDir=X   XRYZCoord=100   LineType=Primary   LineColor=Gray8Dark   Visible=Yes   BubbleLoc=End
   CoordSys=GLOBAL   AxisDir=Y   XRYZCoord=0   LineType=Primary   LineColor=Gray8Dark   Visible=Yes   BubbleLoc=End
   CoordSys=GLOBAL   AxisDir=Z   XRYZCoord=0   LineType=Primary   LineColor=Gray8Dark   Visible=Yes   BubbleLoc=End
   CoordSys=GLOBAL   AxisDir=Z   XRYZCoord=10   LineType=Primary   LineColor=Gray8Dark   Visible=Yes   BubbleLoc=End
   CoordSys=GLOBAL   AxisDir=Z   XRYZCoord=20   LineType=Primary   LineColor=Gray8Dark   Visible=Yes   BubbleLoc=End
   CoordSys=GLOBAL   AxisDir=Z   XRYZCoord=30   LineType=Primary   LineColor=Gray8Dark   Visible=Yes   BubbleLoc=End
   CoordSys=GLOBAL   AxisDir=Z   XRYZCoord=40   LineType=Primary   LineColor=Gray8Dark   Visible=Yes   BubbleLoc=End
   CoordSys=GLOBAL   AxisDir=Z   XRYZCoord=50   LineType=Primary   LineColor=Gray8Dark   Visible=Yes   BubbleLoc=End
   CoordSys=GLOBAL   AxisDir=Z   XRYZCoord=60   LineType=Primary   LineColor=Gray8Dark   Visible=Yes   BubbleLoc=End
   CoordSys=GLOBAL   AxisDir=Z   XRYZCoord=70   LineType=Primary   LineColor=Gray8Dark   Visible=Yes   BubbleLoc=End
   CoordSys=GLOBAL   AxisDir=Z   XRYZCoord=80   LineType=Primary   LineColor=Gray8Dark   Visible=Yes   BubbleLoc=End
   CoordSys=GLOBAL   AxisDir=Z   XRYZCoord=90   LineType=Primary   LineColor=Gray8Dark   Visible=Yes   BubbleLoc=End
 
TABLE:  "GROUPS 1 - DEFINITIONS"
   GroupName=ALL   Selection=Yes   SectionCut=Yes   Steel=Yes   Concrete=Yes   Aluminum=Yes   ColdFormed=Yes   Stage=Yes   Bridge=Yes   AutoSeismic=No   AutoWind=No   SelDesSteel=No   SelDesAlum=No   SelDesCold=No   MassWeight=Yes   Color=Red
 
TABLE:  "JOINT COORDINATES"
   Joint=1   CoordSys=GLOBAL   CoordType=Cartesian   XorR=-100   Y=0   Z=0   SpecialJt=No
   Joint=2   CoordSys=GLOBAL   CoordType=Cartesian   XorR=-100   Y=0   Z=10   SpecialJt=No
   Joint=3   CoordSys=GLOBAL   CoordType=Cartesian   XorR=-100   Y=0   Z=20   SpecialJt=No
   Joint=4   CoordSys=GLOBAL   CoordType=Cartesian   XorR=-100   Y=0   Z=30   SpecialJt=No
   Joint=5   CoordSys=GLOBAL   CoordType=Cartesian   XorR=-100   Y=0   Z=40   SpecialJt=No
   Joint=6   CoordSys=GLOBAL   CoordType=Cartesian   XorR=-100   Y=0   Z=50   SpecialJt=No
   Joint=7   CoordSys=GLOBAL   CoordType=Cartesian   XorR=-100   Y=0   Z=60   SpecialJt=No
   Joint=8   CoordSys=GLOBAL   CoordType=Cartesian   XorR=-100   Y=0   Z=70   SpecialJt=No
   Joint=9   CoordSys=GLOBAL   CoordType=Cartesian   XorR=-100   Y=0   Z=80   SpecialJt=No
   Joint=10   CoordSys=GLOBAL   CoordType=Cartesian   XorR=-100   Y=0   Z=90   SpecialJt=No
   Joint=11   CoordSys=GLOBAL   CoordType=Cartesian   XorR=-80   Y=0   Z=0   SpecialJt=No
   Joint=12   CoordSys=GLOBAL   CoordType=Cartesian   XorR=-80   Y=0   Z=10   SpecialJt=No
   Joint=13   CoordSys=GLOBAL   CoordType=Cartesian   XorR=-80   Y=0   Z=20   SpecialJt=No
   Joint=14   CoordSys=GLOBAL   CoordType=Cartesian   XorR=-80   Y=0   Z=30   SpecialJt=No
   Joint=15   CoordSys=GLOBAL   CoordType=Cartesian   XorR=-80   Y=0   Z=40   SpecialJt=No
   Joint=16   CoordSys=GLOBAL   CoordType=Cartesian   XorR=-80   Y=0   Z=50   SpecialJt=No
   Joint=17   CoordSys=GLOBAL   CoordType=Cartesian   XorR=-80   Y=0   Z=60   SpecialJt=No
   Joint=18   CoordSys=GLOBAL   CoordType=Cartesian   XorR=-80   Y=0   Z=70   SpecialJt=No
   Joint=19   CoordSys=GLOBAL   CoordType=Cartesian   XorR=-80   Y=0   Z=80   SpecialJt=No
   Joint=20   CoordSys=GLOBAL   CoordType=Cartesian   XorR=-80   Y=0   Z=90   SpecialJt=No
# ... 90 like lines cut
 
TABLE:  "JOINT PATTERN DEFINITIONS"
   Pattern=DEFAULT
 
TABLE:  "JOINT RESTRAINT ASSIGNMENTS"
   Joint=1   U1=Yes   U2=Yes   U3=Yes   R1=Yes   R2=Yes   R3=Yes
   Joint=11   U1=Yes   U2=Yes   U3=Yes   R1=Yes   R2=Yes   R3=Yes
   Joint=21   U1=Yes   U2=Yes   U3=Yes   R1=Yes   R2=Yes   R3=Yes
   Joint=31   U1=Yes   U2=Yes   U3=Yes   R1=Yes   R2=Yes   R3=Yes
   Joint=41   U1=Yes   U2=Yes   U3=Yes   R1=Yes   R2=Yes   R3=Yes
   Joint=51   U1=Yes   U2=Yes   U3=Yes   R1=Yes   R2=Yes   R3=Yes
   Joint=61   U1=Yes   U2=Yes   U3=Yes   R1=Yes   R2=Yes   R3=Yes
   Joint=71   U1=Yes   U2=Yes   U3=Yes   R1=Yes   R2=Yes   R3=Yes
   Joint=81   U1=Yes   U2=Yes   U3=Yes   R1=Yes   R2=Yes   R3=Yes
   Joint=91   U1=Yes   U2=Yes   U3=Yes   R1=Yes   R2=Yes   R3=Yes
   Joint=101   U1=Yes   U2=Yes   U3=Yes   R1=Yes   R2=Yes   R3=Yes
 
TABLE:  "LINK PROPERTY DEFINITIONS 01 - GENERAL"
   Link=LIN1   LinkType=Linear   Mass=0   Weight=0   RotInert1=0   RotInert2=0   RotInert3=0   DefLength=1   DefArea=1   PDM2I=0   PDM2J=0   PDM3I=0   PDM3J=0   StiffDFact=1   Color=Gray8Dark   GUID=5596392e-7501-45d1-9067-c8c1345b9ad1
 
TABLE:  "LOAD CASE DEFINITIONS"
   Case=MODAL   Type=LinModal   InitialCond=Zero   DesTypeOpt="Prog Det"   DesignType=Other   DesActOpt="Prog Det"   DesignAct=Other   AutoType=None   RunCase=Yes   GUID=de0aa7cc-ef7d-4a6d-b1dc-844d0a5113ea
 
TABLE:  "LOAD PATTERN DEFINITIONS"
   LoadPat=DEAD   DesignType=Dead   SelfWtMult=1   GUID=65420341-7fa3-48c6-9d96-11bd708fada3
 
TABLE:  "MASS SOURCE"
   MassSource=MSSSRC1   Elements=Yes   Masses=Yes   Loads=No   IsDefault=Yes
 
TABLE:  "MATERIAL PROPERTIES 01 - GENERAL"
   Material=A416Gr270   Type=Tendon   SymType=Uniaxial   TempDepend=No   Color=Yellow   GUID=4e742f53-8e94-44cb-827e-22fb62860051   Notes="ASTM A416 Grade 270 added 6/26/2008 6:46:22 PM"
   Material=ALUM   Type=Aluminum   SymType=Isotropic   TempDepend=No   Color=Green   GUID=400938dc-022a-473b-856a-e9ca84a1d97c   Notes="Aluminum Alloy 6061 T6 added 9/19/2006 4:33:36 PM"
   Material=CONC   Type=Concrete   SymType=Isotropic   TempDepend=No   Color=Blue   GUID=89028dce-6e8d-4e63-bf00-2a1894b35841   Notes="Normalweight f'c = 4 ksi added 9/19/2006 4:33:36 PM"
   Material=OTHER   Type=Other   SymType=Isotropic   TempDepend=No   Color=Cyan   GUID=53703c56-b3cd-4acc-8898-24b75451c5b6   Notes="Material added 9/19/2006 4:33:36 PM"
   Material=STEEL   Type=Steel   SymType=Isotropic   TempDepend=No   Color=Gray8Dark   GUID=5d71ee29-d95d-4e79-9f1e-7e076495034c   Notes="ASTM A36 added 9/19/2006 4:33:36 PM"
 
TABLE:  "MATERIAL PROPERTIES 02 - BASIC MECHANICAL PROPERTIES"
   Material=A416Gr270   UnitWeight=0.49   UnitMass=0.0152296649007508   E1=4104000   A1=6.5E-06
   Material=ALUM   UnitWeight=0.489024   UnitMass=0.0151870795776   E1=1569600   G12=603692.307692308   U12=0.3   A1=6.5E-06
   Material=CONC   UnitWeight=0   UnitMass=0   E1=432000   G12=180000   U12=0.2   A1=5.5E-06
   Material=OTHER   UnitWeight=0.1499904   UnitMass=0.0046580873472   E1=518400   G12=216000   U12=0.2   A1=5.5E-06
   Material=STEEL   UnitWeight=0.489024   UnitMass=0.0151870795776   E1=4176000   G12=1606153.84615385   U12=0.3   A1=6.5E-06
 
TABLE:  "MATERIAL PROPERTIES 03A - STEEL DATA"
   Material=STEEL   Fy=5184   Fu=8352   EffFy=7776   EffFu=9187.2   SSCurveOpt="User Defined"   SSHysType=Kinematic   CoupModType="Von Mises"
 
TABLE:  "MATERIAL PROPERTIES 03B - CONCRETE DATA"
   Material=CONC   Fc=576   eFc=576   LtWtConc=No   SSCurveOpt="User Defined"   SSHysType=Kinematic   FAngle=0   DAngle=0   CoupModType="Modified Darwin-Pecknold"
 
TABLE:  "MATERIAL PROPERTIES 03C - ALUMINUM DATA"
   Material=ALUM   AlumType=Wrought   Alloy=2014-T6   Fcy=8496   Fty=8352   Ftu=9504   Fsu=5760   SSHysType=Kinematic   CoupModType="Von Mises"
 
TABLE:  "MATERIAL PROPERTIES 03F - TENDON DATA"
   Material=A416Gr270   Fy=35294.4   Fu=38880   SSCurveOpt="270 ksi"   SSHysType=Kinematic   FinalSlope=-0.1   CoupModType="Von Mises"
 
TABLE:  "MATERIAL PROPERTIES 03G - OTHER DATA"
   Material=OTHER   SSHysType=Elastic   FAngle=0   DAngle=0   CoupModType=None
 
TABLE:  "MATERIAL PROPERTIES 03J - COUPLED NONLINEAR VON MISES DATA"
   Material=A416Gr270   YieldStress=35294.4   LinIsoHard=No   LinKinHard=No   NLIsoSaHard=No
   Material=ALUM   YieldStress=8496   LinIsoHard=No   LinKinHard=No   NLIsoSaHard=No
   Material=STEEL   YieldStress=7776   LinIsoHard=No   LinKinHard=No   NLIsoSaHard=No
 
TABLE:  "MATERIAL PROPERTIES 04 - USER STRESS-STRAIN CURVES"
   Material=ALUM   Strain=-0.000270642201834862   Stress=0   PointID=-E
   Material=ALUM   Strain=-0.000189449541284404   Stress=-148680   PointID=-D
   Material=ALUM   Strain=-0.000108256880733945   Stress=-297360   PointID=-C
   Material=ALUM   Strain=-1.30259585591587E-07   Stress=-297360   PointID=-B
   Material=ALUM   Strain=0   Stress=0   PointID=A
   Material=ALUM   Strain=1.30259585591587E-07   Stress=297360   PointID=B
   Material=ALUM   Strain=0.000108256880733945   Stress=297360
   Material=ALUM   Strain=0.000270642201834862   Stress=322848   PointID=C
   Material=ALUM   Strain=0.00043302752293578   Stress=322848   PointID=D
   Material=ALUM   Strain=0.000541284403669725   Stress=297360   PointID=E
   Material=CONC   Strain=-6.66666666666667E-05   Stress=0   PointID=-E
   Material=CONC   Strain=-4.66666666666667E-05   Stress=-2488320   PointID=-D
   Material=CONC   Strain=-2.66666666666667E-05   Stress=-4976640   PointID=-C
   Material=CONC   Strain=-2.75862068965517E-06   Stress=-4976640   PointID=-B
   Material=CONC   Strain=0   Stress=0   PointID=A
   Material=CONC   Strain=2.75862068965517E-06   Stress=4976640   PointID=B
   Material=CONC   Strain=2.66666666666667E-05   Stress=4976640
   Material=CONC   Strain=6.66666666666667E-05   Stress=6220800   PointID=C
   Material=CONC   Strain=0.000106666666666667   Stress=6220800   PointID=D
   Material=CONC   Strain=0.000133333333333333   Stress=4976640   PointID=E
   Material=OTHER   Strain=-1.92901234567901E-06   Stress=-1
   Material=OTHER   Strain=0   Stress=0   PointID=A
   Material=OTHER   Strain=1.92901234567901E-06   Stress=1
   Material=STEEL   Strain=-6.20689655172414E-05   Stress=0   PointID=-E
   Material=STEEL   Strain=-4.3448275862069E-05   Stress=-13436928   PointID=-D
   Material=STEEL   Strain=-2.48275862068966E-05   Stress=-26873856   PointID=-C
   Material=STEEL   Strain=-1.5410225921522E-06   Stress=-26873856   PointID=-B
   Material=STEEL   Strain=0   Stress=0   PointID=A
   Material=STEEL   Strain=1.5410225921522E-06   Stress=26873856   PointID=B
   Material=STEEL   Strain=2.48275862068966E-05   Stress=26873856
   Material=STEEL   Strain=6.20689655172414E-05   Stress=43296768   PointID=C
   Material=STEEL   Strain=9.93103448275862E-05   Stress=43296768   PointID=D
   Material=STEEL   Strain=0.000124137931034483   Stress=26873856   PointID=E
 
TABLE:  "MATERIAL PROPERTIES 06 - DAMPING PARAMETERS"
   Material=A416Gr270   ModalRatio=0   VisMass=0   VisStiff=0   HysMass=0   HysStiff=0
   Material=ALUM   ModalRatio=0   VisMass=0   VisStiff=0   HysMass=0   HysStiff=0
   Material=CONC   ModalRatio=0   VisMass=0   VisStiff=0   HysMass=0   HysStiff=0
   Material=OTHER   ModalRatio=0   VisMass=0   VisStiff=0   HysMass=0   HysStiff=0
   Material=STEEL   ModalRatio=0   VisMass=0   VisStiff=0   HysMass=0   HysStiff=0
 
TABLE:  "MATERIAL PROPERTIES 09 - ACCEPTANCE CRITERIA"
   Material=A416Gr270   IOTens=0.015   LSTens=0.023   CPTens=0.03   IOComp=-0.015   LSComp=-0.023   CPComp=-0.03
   Material=ALUM   IOTens=0.01   LSTens=0.02   CPTens=0.05   IOComp=-0.005   LSComp=-0.01   CPComp=-0.02
   Material=CONC   IOTens=0.01   LSTens=0.02   CPTens=0.05   IOComp=-0.003   LSComp=-0.006   CPComp=-0.015   IgnoreTens=Yes
   Material=OTHER   IOTens=0.01   LSTens=0.02   CPTens=0.05   IOComp=-0.005   LSComp=-0.01   CPComp=-0.02   IgnoreTens=No
   Material=STEEL   IOTens=0.01   LSTens=0.02   CPTens=0.05   IOComp=-0.005   LSComp=-0.01   CPComp=-0.02
 
TABLE:  "NAMED SETS - DATABASE TABLES 1 - GENERAL"
   DBNamedSet=DBO1   SortOrder="Elem, Cases"   Unformatted=Yes   ModeStart=1   ModeEnd=All   ModalHist=Envelopes   DirectHist=Envelopes   NLStatic=LastStep   BaseReacX=0   BaseReacY=0   BaseReacZ=0   Combo=Envelopes   Steady=Frequencies _
        SteadyOpt=Magnitude   PSD=RMS   Multistep=Envelopes
 
TABLE:  "NAMED SETS - DATABASE TABLES 2 - SELECTIONS"
   DBNamedSet=DBO1   SelectType=Table   Selection="Modal Periods And Frequencies"
   DBNamedSet=DBO1   SelectType=Table   Selection="Modal Participation Factors"
   DBNamedSet=DBO1   SelectType=Table   Selection="Modal Participating Mass Ratios"
   DBNamedSet=DBO1   SelectType=Table   Selection="Modal Load Participation Ratios"
   DBNamedSet=DBO1   SelectType=LoadCase   Selection=MODAL
 
TABLE:  "OPTIONS - COLORS - DISPLAY"
   DeviceType=Screen   Points=Yellow   LinesFrame=Yellow   LinesFrmDL=Yellow   LinesCable=Green   LinesTendon=Green   SpringLinks=Green   Restraints=Green   Releases=Green   Axes=Cyan   Text=Green   ShadowLines=Gray8Dark _
        GuideLines=Gray8Dark   Highlight=Red   Selection=White   AreaFillBot=Red   AreaFillTop=Yellow   AreaFillSd=Red   AreaEdge=DarkRed   SolidF1=Red   SolidF2=Blue   SolidF3=Green   SolidF4=Yellow   SolidF5=White   SolidF6=Cyan _
        SolidEdge=DarkRed   Floor=Gray4   Background=Black   BGLowLeft=Black   BGLowRight=Black   BGUpRight=Black   Darkness=0.5
   DeviceType=Printer   Points=Gray8Dark   LinesFrame=Black   LinesFrmDL=Gray4   LinesCable=Black   LinesTendon=Black   SpringLinks=Gray8Dark   Restraints=Gray8Dark   Releases=Gray4   Axes=Black   Text=Black   ShadowLines=Gray4 _
        GuideLines=Gray4   Highlight=Black   Selection=Black   AreaFillBot=Gray4   AreaFillTop=Gray8Dark   AreaFillSd=Gray4   AreaEdge=Black   SolidF1=Gray1Light   SolidF2=Gray2   SolidF3=Gray3   SolidF4=Gray4   SolidF5=Gray5 _
        SolidF6=Gray6   SolidEdge=Black   Floor=Gray4   Background=White   BGLowLeft=White   BGLowRight=White   BGUpRight=White   Darkness=0.5
   DeviceType="Color Printer"   Points=Yellow   LinesFrame=Blue   LinesFrmDL=7303023   LinesCable=Green   LinesTendon=Green   SpringLinks=Green   Restraints=Green   Releases=Green   Axes=Cyan   Text=Green   ShadowLines=Gray8Dark _
        GuideLines=Gray8Dark   Highlight=Red   Selection=10504778   AreaFillBot=Red   AreaFillTop=Yellow   AreaFillSd=16634568   AreaEdge=DarkRed   SolidF1=Red   SolidF2=Blue   SolidF3=Green   SolidF4=Yellow   SolidF5=White   SolidF6=Cyan _
        SolidEdge=DarkRed   Floor=10461087   Background=White   BGLowLeft=White   BGLowRight=14671839   BGUpRight=White   Darkness=0.5
 
TABLE:  "OPTIONS - COLORS - OUTPUT"
   DeviceType=Screen   Contour1=13107400   Contour2=6553828   Contour3=Red   Contour4=16639   Contour5=Orange   Contour6=43775   Contour7=54527   Contour8=Yellow   Contour9=65408   Contour10=Green   Contour11=8453888   Contour12=Cyan _
        Contour13=16755200   Contour14=16733440   Contour15=Blue   Transpare=0.5   Ratio1=Cyan   Ratio2=Green   Ratio3=Yellow   Ratio4=Orange   Ratio5=Red   RatioNotD=Gray4   RatioNotC=Red   RatioVal1=0.5   RatioVal2=0.7   RatioVal3=0.9 _
        RatioVal4=1   DFillPos=Yellow   DFillNeg=Red   DFillRPos=Blue   DFillRNeg=Blue
   DeviceType=Printer   Contour1=Black   Contour2=3158064   Contour3=4210752   Contour4=5263440   Contour5=6316128   Contour6=7368816   Contour7=Gray8Dark   Contour8=Gray7   Contour9=Gray6   Contour10=Gray5   Contour11=Gray4 _
        Contour12=Gray3   Contour13=Gray2   Contour14=Gray1Light   Contour15=White   Transpare=0   Ratio1=Gray2   Ratio2=Gray4   Ratio3=Gray8Dark   Ratio4=4210752   Ratio5=Black   RatioNotD=Gray4   RatioNotC=Black   RatioVal1=0.5 _
        RatioVal2=0.7   RatioVal3=0.9   RatioVal4=1   DFillPos=Gray8Dark   DFillNeg=Gray8Dark   DFillRPos=4210752   DFillRNeg=4210752
   DeviceType="Color Printer"   Contour1=13107400   Contour2=6553828   Contour3=Red   Contour4=16639   Contour5=Orange   Contour6=43775   Contour7=54527   Contour8=Yellow   Contour9=65408   Contour10=Green   Contour11=8453888 _
        Contour12=Cyan   Contour13=16755200   Contour14=16733440   Contour15=Blue   Transpare=0.5   Ratio1=Cyan   Ratio2=Green   Ratio3=Yellow   Ratio4=Orange   Ratio5=Red   RatioNotD=Gray4   RatioNotC=Red   RatioVal1=0.5   RatioVal2=0.7 _
        RatioVal3=0.9   RatioVal4=1   DFillPos=Red   DFillNeg=Red   DFillRPos=Blue   DFillRNeg=Blue
 
TABLE:  "PREFERENCES - ALUMINUM DESIGN - AA 2015"
   THDesign=Envelopes   SRatioLimit=1   Provision=ASD   LatFact=1.33333333333333   UseLatFact=No   Bridge=No   OmegaTy=1.65   OmegaTr=1.95   OmegaC=1.65   OmegaBo=1.65   OmegaBr=1.95   OmegaVo=1.65   OmegaVr=1.95
 
TABLE:  "PREFERENCES - COLD FORMED DESIGN - AISI-ASD96"
   THDesign=Envelopes   FrameType="Moment Frame"   SRatioLimit=1   MaxIter=1   OmegaBS=1.67   OmegaBUS=1.67   OmegaBLTB=1.67   OmegaVS=1.67   OmegaVNS=1.5   OmegaT=1.67   OmegaC=1.8
 
TABLE:  "PREFERENCES - CONCRETE DESIGN - ACI 318-08/IBC2009"
   THDesign=Envelopes   NumCurves=24   NumPoints=11   MinEccen=Yes   PatLLF=0.75   UFLimit=0.95   Rho=1   Sds=0.5   PhiT=0.9   PhiCTied=0.65   PhiCSpiral=0.7   PhiV=0.75   PhiVSeismic=0.6   PhiVJoint=0.85   TanTheta=1
 
TABLE:  "PREFERENCES - CONCRETE SHELL DESIGN - EUROCODE 2-2004"
   Country="CEN Default"   GammaS=1.15   GammaC=1.5   AlphaCC=1   AlphaCT=1   CrackCond="Program Determined"   ShrDesMet="Method 1"   CotTheta=1   AddTenForce=Yes
 
TABLE:  "PREFERENCES - DIMENSIONAL"
   MergeTol=0.00833333333333333   FineGrid=12   Nudge=12   SelectTol=3   SnapTol=12   SLineThick=1   PLineThick=4   MaxFont=12   MinFont=3   AutoZoom=10   ShrinkFact=70   TextFileLen=240
 
TABLE:  "PREFERENCES - STEEL DESIGN - AISC360-05-IBC2006"
   THDesign=Envelopes   FrameType=SMF   PatLLF=0.75   SRatioLimit=1   MaxIter=1   SDC=E   SeisCode=No   SeisLoad=No   ImpFactor=1   SystemRho=1   SystemSds=0.5   SystemR=8   SystemCd=5.5   Omega0=2.8   Provision=ASD _
        AMethod="Direct Analysis"   SOMethod="General 2nd Order"   SRMethod="Tau-b Fixed"   NLCoeff=0.002   OmegaB=1.67   OmegaC=1.67   OmegaTY=1.67   OmegaTF=2   OmegaV=1.67   OmegaVRolledI=1.5   OmegaVT=1.67   PlugWeld=Yes _
        HSSWelding=ERW   HSSReduceT=No   CheckDefl=No   DLRat=120   SDLAndLLRat=120   LLRat=360   TotalRat=240   NetRat=240
 
TABLE:  "PROGRAM CONTROL"
   ProgramName=SAP2000   Version=25.2.0   CurrUnits="Kip, ft, F"   SteelCode=AISC360-05/IBC2006   ConcCode="ACI 318-08/IBC2009"   AlumCode="AA 2015"   ColdCode=AISI-ASD96   RegenHinge=No
 
TABLE:  "PROJECT INFORMATION"
   Item="Company Name"
   Item="Client Name"
   Item="Project Name"
   Item="Project Number"
   Item="Model Name"
   Item="Model Description"
   Item="Revision Number"
   Item="Frame Type"
   Item=Engineer
   Item=Checker
   Item=Supervisor
   Item="Issue Code"
   Item="Design Code"
 
TABLE:  "REBAR SIZES"
   RebarID=#2   Area=0.000347222222222222   Diameter=0.0208333333333333
   RebarID=#3   Area=0.000763888884749677   Diameter=0.03125
   RebarID=#4   Area=0.00138888890958495   Diameter=0.0416666666666667
   RebarID=#5   Area=0.00215277779433462   Diameter=0.0520833333333333
   RebarID=#6   Area=0.00305555553899871   Diameter=0.0625
   RebarID=#7   Area=0.00416666683223512   Diameter=0.0729166666666667
   RebarID=#8   Area=0.00548611126012272   Diameter=0.0833333333333333
   RebarID=#9   Area=0.00694444444444444   Diameter=0.0940000017484029
   RebarID=#10   Area=0.00881944431198968   Diameter=0.105833331743876
   RebarID=#11   Area=0.010833332935969   Diameter=0.11749999721845
   RebarID=#14   Area=0.015625   Diameter=0.141083329916
   RebarID=#18   Area=0.0277777777777778   Diameter=0.188083330790202
   RebarID=10M   Area=0.00107639108647689   Diameter=0.0370734919962068
   RebarID=15M   Area=0.00215278217295378   Diameter=0.0524934391085823
   RebarID=20M   Area=0.00322917325943068   Diameter=0.0639763789135847
   RebarID=25M   Area=0.00538195543238446   Diameter=0.0826771690990994
   RebarID=30M   Area=0.00753473760533824   Diameter=0.0980971130826221
   RebarID=35M   Area=0.0107639108647689   Diameter=0.117125988514107
   RebarID=45M   Area=0.0161458662971534   Diameter=0.143372708068398
   RebarID=55M   Area=0.0269097771619223   Diameter=0.185039377863917
   RebarID=6   Area=0.000304618669260748   Diameter=0.0196850396657184
   RebarID=8   Area=0.000541424708285664   Diameter=0.0262467195542912
   RebarID=10   Area=0.00084496700288436   Diameter=0.032808399442864
   RebarID=12   Area=0.00121632192771889   Diameter=0.0393700793314367
   RebarID=14   Area=0.00165764227317441   Diameter=0.0459317592200095
   RebarID=16   Area=0.00216354608381855   Diameter=0.0524934391085823
   RebarID=20   Area=0.00337986801153744   Diameter=0.0656167988857279
   RebarID=25   Area=0.00528508023460154   Diameter=0.0820209986071599
   RebarID=26   Area=0.0057156366691923   Diameter=0.0853018385514463
   RebarID=28   Area=0.00663056909269765   Diameter=0.0918635184400191
 
TABLE:  "SOLID PROPERTY DEFINITIONS"
   SolidProp=SOLID1   Material=CONC   MatAngleA=0   MatAngleB=0   MatAngleC=0   InComp=Yes   Color=Blue   GUID=6b588a07-16bf-48bd-b1cc-2d2bfcb6e9ee
 
TABLE:  "TABLES AUTOMATICALLY SAVED AFTER ANALYSIS"
   SaveFile=Yes   FileType=XML   FileName="Example 1-021.xml"   NamedSet=DBO1   Group=ALL
 
TABLE:  "TENDON SECTION DEFINITIONS"
   TendonSect=TEN1   ModelOpt=Loads   PreType="Post Tension"   Material=A416Gr270   Specify=Area   Diameter=0.0940315972579594   Area=0.00694444444444444   Color=Green   AMod=1   A2Mod=1   A3Mod=1   JMod=1   I2Mod=1   I3Mod=1   MMod=1 _
        WMod=1   GUID=18228681-fa7a-4b2a-8ccb-8c4c908b06d0
 
END TABLE DATA
