File C:\Users\BRACE2\Documents\Tower.s2k was saved on m/d/yy at h:mm:ss
 
TABLE:  "PROGRAM CONTROL"
   ProgramName=SAP2000   Version=25.3.1   ProgLevel=Ultimate   LicenseOS=No   LicenseSC=No   LicenseHT=No   CurrUnits="Kip, in, F"   SteelCode="AISC 360-16"   ConcCode="ACI 318-19"   AlumCode="AA 2015"   ColdCode=AISI-16   RegenHinge=Yes
 
TABLE:  "ACTIVE DEGREES OF FREEDOM"
   UX=Yes   UY=Yes   UZ=Yes   RX=Yes   RY=Yes   RZ=Yes
 
TABLE:  "ANALYSIS OPTIONS"
   Solver=Advanced   SolverProc=Auto   Force32Bit=No   StiffCase=None   GeomMod=None   HingeOpt="In Elements"   NumAThreads=0   MaxFileSize=0   NumDThreads=0   NumRThreads=0   UseMMFiles="Program Determined"   AllowDiff=No
 
TABLE:  "COORDINATE SYSTEMS"
   Name=GLOBAL   Type=Cartesian   X=0   Y=0   Z=0   AboutZ=0   AboutY=0   AboutX=0
 
TABLE:  "GRID LINES"
   CoordSys=GLOBAL   AxisDir=X   GridID=B   XRYZCoord=-240   LineType=Primary   LineColor=Gray8Dark   Visible=Yes   BubbleLoc=End   AllVisible=Yes   BubbleSize=15
   CoordSys=GLOBAL   AxisDir=X   GridID=D   XRYZCoord=-192   LineType=Primary   LineColor=Gray8Dark   Visible=Yes   BubbleLoc=End
   CoordSys=GLOBAL   AxisDir=X   GridID=F   XRYZCoord=-144   LineType=Primary   LineColor=Gray8Dark   Visible=Yes   BubbleLoc=End
   CoordSys=GLOBAL   AxisDir=X   GridID=H   XRYZCoord=-96   LineType=Primary   LineColor=Gray8Dark   Visible=Yes   BubbleLoc=End
   CoordSys=GLOBAL   AxisDir=X   GridID=J   XRYZCoord=-48   LineType=Primary   LineColor=Gray8Dark   Visible=Yes   BubbleLoc=End
   CoordSys=GLOBAL   AxisDir=X   GridID=I   XRYZCoord=48   LineType=Primary   LineColor=Gray8Dark   Visible=Yes   BubbleLoc=End
   CoordSys=GLOBAL   AxisDir=X   GridID=G   XRYZCoord=96   LineType=Primary   LineColor=Gray8Dark   Visible=Yes   BubbleLoc=End
   CoordSys=GLOBAL   AxisDir=X   GridID=E   XRYZCoord=144   LineType=Primary   LineColor=Gray8Dark   Visible=Yes   BubbleLoc=End
   CoordSys=GLOBAL   AxisDir=X   GridID=C   XRYZCoord=192   LineType=Primary   LineColor=Gray8Dark   Visible=Yes   BubbleLoc=End
   CoordSys=GLOBAL   AxisDir=X   GridID=A   XRYZCoord=240   LineType=Primary   LineColor=Gray8Dark   Visible=Yes   BubbleLoc=End
   CoordSys=GLOBAL   AxisDir=Y   GridID=2   XRYZCoord=-240   LineType=Primary   LineColor=Gray8Dark   Visible=Yes   BubbleLoc=Start
   CoordSys=GLOBAL   AxisDir=Y   GridID=4   XRYZCoord=-192   LineType=Primary   LineColor=Gray8Dark   Visible=Yes   BubbleLoc=Start
   CoordSys=GLOBAL   AxisDir=Y   GridID=6   XRYZCoord=-144   LineType=Primary   LineColor=Gray8Dark   Visible=Yes   BubbleLoc=Start
   CoordSys=GLOBAL   AxisDir=Y   GridID=8   XRYZCoord=-96   LineType=Primary   LineColor=Gray8Dark   Visible=Yes   BubbleLoc=Start
   CoordSys=GLOBAL   AxisDir=Y   GridID=10   XRYZCoord=-48   LineType=Primary   LineColor=Gray8Dark   Visible=Yes   BubbleLoc=Start
   CoordSys=GLOBAL   AxisDir=Y   GridID=9   XRYZCoord=48   LineType=Primary   LineColor=Gray8Dark   Visible=Yes   BubbleLoc=Start
   CoordSys=GLOBAL   AxisDir=Y   GridID=7   XRYZCoord=96   LineType=Primary   LineColor=Gray8Dark   Visible=Yes   BubbleLoc=Start
   CoordSys=GLOBAL   AxisDir=Y   GridID=5   XRYZCoord=144   LineType=Primary   LineColor=Gray8Dark   Visible=Yes   BubbleLoc=Start
   CoordSys=GLOBAL   AxisDir=Y   GridID=3   XRYZCoord=192   LineType=Primary   LineColor=Gray8Dark   Visible=Yes   BubbleLoc=Start
   CoordSys=GLOBAL   AxisDir=Y   GridID=1   XRYZCoord=240   LineType=Primary   LineColor=Gray8Dark   Visible=Yes   BubbleLoc=Start
   CoordSys=GLOBAL   AxisDir=Z   GridID=Z1   XRYZCoord=0   LineType=Primary   LineColor=Gray8Dark   Visible=Yes   BubbleLoc=End
   CoordSys=GLOBAL   AxisDir=Z   GridID=Z2   XRYZCoord=240   LineType=Primary   LineColor=Gray8Dark   Visible=Yes   BubbleLoc=End
   CoordSys=GLOBAL   AxisDir=Z   GridID=Z3   XRYZCoord=480   LineType=Primary   LineColor=Gray8Dark   Visible=Yes   BubbleLoc=End
   CoordSys=GLOBAL   AxisDir=Z   GridID=Z4   XRYZCoord=720   LineType=Primary   LineColor=Gray8Dark   Visible=Yes   BubbleLoc=End
   CoordSys=GLOBAL   AxisDir=Z   GridID=Z5   XRYZCoord=960   LineType=Primary   LineColor=Gray8Dark   Visible=Yes   BubbleLoc=End
 
TABLE:  "MATERIAL PROPERTIES 01 - GENERAL"
   Material=4000Psi   Type=Concrete   Grade="f'c 4000 psi"   SymType=Isotropic   TempDepend=No   Color=Yellow   GUID=9f6f617c-d964-4b7b-8c89-ce001d3a6dc3   Notes="Customary f'c 4000 psi 9/4/2024 4:52:54 PM"
   Material=A992Fy50   Type=Steel   Grade="Grade 50"   SymType=Isotropic   TempDepend=No   Color=Magenta   GUID=e62a5a4f-7434-4468-9bbe-8f976d3daf3f   Notes="ASTM A992 Grade 50 9/4/2024 4:52:54 PM"
 
TABLE:  "MATERIAL PROPERTIES 02 - BASIC MECHANICAL PROPERTIES"
   Material=4000Psi   UnitWeight=8.680555556E-05   UnitMass=2.248332521E-07   E1=3604.9965   G12=1502.081875   U12=0.2   A1=5.5E-06
   Material=A992Fy50   UnitWeight=0.000283564814814815   UnitMass=7.34455290352564E-07   E1=29000   G12=11153.8461538462   U12=0.3   A1=6.5E-06
 
TABLE:  "MATERIAL PROPERTIES 03A - STEEL DATA"
   Material=A992Fy50   Fy=50   Fu=65   EffFy=55   EffFu=71.5   SSCurveOpt=Simple   SSHysType=Kinematic   SHard=0.015   SMax=0.11   SRup=0.17   FinalSlope=-0.1   CoupModType="Von Mises"
 
TABLE:  "MATERIAL PROPERTIES 03B - CONCRETE DATA"
   Material=4000Psi   Fc=4   eFc=4   LtWtConc=No   SSCurveOpt=Mander   SSHysType=Takeda   SFc=0.00221914   SCap=0.005   FinalSlope=-0.1   FAngle=0   DAngle=0   CoupModType="Modified Darwin-Pecknold"
 
TABLE:  "MATERIAL PROPERTIES 03J - COUPLED NONLINEAR VON MISES DATA"
   Material=A992Fy50   YieldStress=55   LinIsoHard=No   LinKinHard=No   NLIsoSaHard=No
 
TABLE:  "MATERIAL PROPERTIES 06 - DAMPING PARAMETERS"
   Material=4000Psi   ModalRatio=0   VisMass=0   VisStiff=0   HysMass=0   HysStiff=0
   Material=A992Fy50   ModalRatio=0   VisMass=0   VisStiff=0   HysMass=0   HysStiff=0
 
TABLE:  "MATERIAL PROPERTIES 09 - ACCEPTANCE CRITERIA"
   Material=4000Psi   IOTens=0.01   LSTens=0.02   CPTens=0.05   IOComp=-0.003   LSComp=-0.006   CPComp=-0.015   IgnoreTens=Yes
   Material=A992Fy50   IOTens=0.01   LSTens=0.02   CPTens=0.05   IOComp=-0.005   LSComp=-0.01   CPComp=-0.02
 
TABLE:  "FRAME SECTION PROPERTIES 01 - GENERAL"
   SectionName=FSEC1   Material=A992Fy50   Shape="I/Wide Flange"   t3=12   t2=5   tf=0.38   tw=0.25   t2b=5   tfb=0.38   FilletRadius=0   Area=6.61   TorsConst=0.231870449633333   I33=157.902961333333   I22=7.93130208333333   I23=0   AS2=3 _
        AS3=3.16666666666667   S33Top=26.3171602222222   S33Bot=26.3171602222222   S22Left=3.17252083333333   S22Right=3.17252083333333   Z33=29.9741   Z22=4.925625   R33=4.88758595009503   R22=1.09539692122433   CGOffset3=0   CGOffset2=0 _
        EccV2=0   EccV3=0   Cw=267.235791666667   ConcCol=No   ConcBeam=No   Color=Blue   TotalWt=42.8436044362849   TotalMass=0.110968322909003   FromFile=No   AMod=1   A2Mod=1   A3Mod=1   JMod=1   I2Mod=1   I3Mod=1   MMod=1   WMod=1 _
        GUID=224200d3-735c-43af-aafb-23052c36b705   Notes="Added 9/4/2024 4:53:20 PM"
 
TABLE:  "FRAME SECTION PROPERTIES 13 - TIME DEPENDENT"
   SectionName=FSEC1   TypeSize=Auto   AutoValSize=0.394626865671642   AutoSFSize=1
 
TABLE:  "REBAR SIZES"
   RebarID=#2   Area=0.05   Diameter=0.25
   RebarID=#3   Area=0.109999999403954   Diameter=0.375
   RebarID=#4   Area=0.200000002980232   Diameter=0.5
   RebarID=#5   Area=0.310000002384186   Diameter=0.625
   RebarID=#6   Area=0.439999997615814   Diameter=0.75
   RebarID=#7   Area=0.600000023841858   Diameter=0.875
   RebarID=#8   Area=0.790000021457672   Diameter=1
   RebarID=#9   Area=1   Diameter=1.12800002098083
   RebarID=#10   Area=1.26999998092651   Diameter=1.26999998092651
   RebarID=#11   Area=1.55999994277954   Diameter=1.4099999666214
   RebarID=#14   Area=2.25   Diameter=1.692999958992
   RebarID=#18   Area=4   Diameter=2.25699996948242
   RebarID=10M   Area=0.155000314116478   Diameter=0.444881916046143
   RebarID=15M   Area=0.310000628232956   Diameter=0.62992125749588
   RebarID=20M   Area=0.465000957250595   Diameter=0.767716526985168
   RebarID=25M   Area=0.775001585483551   Diameter=0.992126047611237
   RebarID=30M   Area=1.08500218391418   Diameter=1.17716538906097
   RebarID=35M   Area=1.5500031709671   Diameter=1.4055118560791
   RebarID=45M   Area=2.3250048160553   Diameter=1.72047245502472
   RebarID=55M   Area=3.87500786781311   Diameter=2.22047257423401
   RebarID=6d   Area=0.0438650883734226   Diameter=0.236220479011536
   RebarID=8d   Area=0.0779651552438736   Diameter=0.31496062874794
   RebarID=10d   Area=0.121675245463848   Diameter=0.393700778484344
   RebarID=12d   Area=0.175150364637375   Diameter=0.472440958023071
   RebarID=14d   Area=0.238700494170189   Diameter=0.551181137561798
   RebarID=16d   Area=0.31155064702034   Diameter=0.62992125749588
   RebarID=20d   Area=0.486700981855392   Diameter=0.787401556968689
   RebarID=25d   Area=0.761051535606384   Diameter=0.984251976013184
   RebarID=26d   Area=0.823051691055298   Diameter=1.02362203598022
   RebarID=28d   Area=0.954801976680756   Diameter=1.1023622751236
   RebarID=N12   Area=0.175150364637375   Diameter=0.472440958023071
   RebarID=N16   Area=0.31155064702034   Diameter=0.62992125749588
   RebarID=N20   Area=0.486700981855392   Diameter=0.787401556968689
   RebarID=N24   Area=0.7006014585495   Diameter=0.944881916046143
   RebarID=N28   Area=0.954801976680756   Diameter=1.1023622751236
   RebarID=N32   Area=1.24620258808136   Diameter=1.25984251499176
   RebarID=N36   Area=1.58100318908691   Diameter=1.41732287406921
 
TABLE:  "LOAD PATTERN DEFINITIONS"
   LoadPat=DEAD   DesignType=Dead   SelfWtMult=1   GUID=7ab7f3b2-106b-4ab3-a980-8cb6f306d40e
 
TABLE:  "AUTO WAVE 3 - WAVE CHARACTERISTICS - GENERAL"
   WaveChar=Default   WaveType="From Theory"   KinFactor=1   SWaterDepth=1800   WaveHeight=720   WavePeriod=12   WaveTheory=Linear
 
TABLE:  "FUNCTION - RESPONSE SPECTRUM - USER"
   Name=UNIFRS   Period=0   Accel=1   FuncDamp=0.05
   Name=UNIFRS   Period=1   Accel=1
 
TABLE:  "FUNCTION - TIME HISTORY - USER"
   Name=RAMPTH   Time=0   Value=0
   Name=RAMPTH   Time=1   Value=1
   Name=RAMPTH   Time=4   Value=1
   Name=UNIFTH   Time=0   Value=1
   Name=UNIFTH   Time=1   Value=1
 
TABLE:  "FUNCTION - POWER SPECTRAL DENSITY - USER"
   Name=UNIFPSD   Frequency=0   Value=1
   Name=UNIFPSD   Frequency=1   Value=1
 
TABLE:  "FUNCTION - STEADY STATE - USER"
   Name=UNIFSS   Frequency=0   Value=1
   Name=UNIFSS   Frequency=1   Value=1
 
TABLE:  "GROUPS 1 - DEFINITIONS"
   GroupName=ALL   Selection=Yes   SectionCut=Yes   Steel=Yes   Concrete=Yes   Aluminum=Yes   ColdFormed=Yes   Stage=Yes   Bridge=Yes   AutoSeismic=No   AutoWind=No   SelDesSteel=No   SelDesAlum=No   SelDesCold=No   MassWeight=Yes   Color=Red
 
TABLE:  "JOINT PATTERN DEFINITIONS"
   Pattern=Default
 
TABLE:  "MASS SOURCE"
   MassSource=MSSSRC1   Elements=Yes   Masses=Yes   Loads=No   IsDefault=Yes
 
TABLE:  "FUNCTION - PLOT FUNCTIONS"
   PlotFunc="Input Energy"   Type=Energy   Component=Input   Mode=All
 
TABLE:  "LOAD CASE DEFINITIONS"
   Case=DEAD   Type=LinStatic   InitialCond=Zero   DesTypeOpt="Prog Det"   DesignType=Dead   DesActOpt="Prog Det"   DesignAct=Non-Composite   AutoType=None   RunCase=Yes   CaseStatus="Not Run"   GUID=9fbdb3b1-80b8-4434-8497-8b0e38cd861e
   Case=MODAL   Type=LinModal   InitialCond=Zero   DesTypeOpt="Prog Det"   DesignType=Other   DesActOpt="Prog Det"   DesignAct=Other   AutoType=None   RunCase=Yes   CaseStatus="Not Run"   GUID=ad909780-dab6-4a6e-981a-001624da5f1c
 
TABLE:  "CASE - STATIC 1 - LOAD ASSIGNMENTS"
   Case=DEAD   LoadType="Load pattern"   LoadName=DEAD   LoadSF=1
 
TABLE:  "CASE - MODAL 1 - GENERAL"
   Case=MODAL   ModeType=Eigen   MaxNumModes=12   MinNumModes=1   EigenShift=0   EigenCutoff=0   EigenTol=1E-09   AutoShift=Yes
 
TABLE:  "JOINT COORDINATES"
   Joint=1   CoordSys=GLOBAL   CoordType=Cartesian   XorR=-240   Y=-240   Z=0   SpecialJt=No   GlobalX=-240   GlobalY=-240   GlobalZ=0   GUID=da8d8c21-f6ed-494d-b397-110c0da2497c
   Joint=2   CoordSys=GLOBAL   CoordType=Cartesian   XorR=-192   Y=-192   Z=240   SpecialJt=No   GlobalX=-192   GlobalY=-192   GlobalZ=240   GUID=e3f4c68f-fc4d-4096-a9fa-0f722aaf409d
   Joint=3   CoordSys=GLOBAL   CoordType=Cartesian   XorR=-192   Y=192   Z=240   SpecialJt=No   GlobalX=-192   GlobalY=192   GlobalZ=240   GUID=1194a6bc-e46a-4db0-aeb8-288132b04c2c
   Joint=4   CoordSys=GLOBAL   CoordType=Cartesian   XorR=192   Y=-192   Z=240   SpecialJt=No   GlobalX=192   GlobalY=-192   GlobalZ=240   GUID=87e076fb-5ca2-47d3-98ea-c422617f90e6
   Joint=5   CoordSys=GLOBAL   CoordType=Cartesian   XorR=-240   Y=240   Z=0   SpecialJt=No   GlobalX=-240   GlobalY=240   GlobalZ=0   GUID=d8ad7378-bb0e-4062-b4a7-dfac2ba7e0c4
   Joint=6   CoordSys=GLOBAL   CoordType=Cartesian   XorR=192   Y=192   Z=240   SpecialJt=No   GlobalX=192   GlobalY=192   GlobalZ=240   GUID=cb0a8216-6b5d-4fe4-8e49-3a836885303b
   Joint=7   CoordSys=GLOBAL   CoordType=Cartesian   XorR=240   Y=-240   Z=0   SpecialJt=No   GlobalX=240   GlobalY=-240   GlobalZ=0   GUID=469eadc9-7a05-4785-8f57-fdd632f52907
   Joint=8   CoordSys=GLOBAL   CoordType=Cartesian   XorR=240   Y=240   Z=0   SpecialJt=No   GlobalX=240   GlobalY=240   GlobalZ=0   GUID=36250da1-e506-48a6-a6ce-31c8f96ef8c8
   Joint=9   CoordSys=GLOBAL   CoordType=Cartesian   XorR=-144   Y=-144   Z=480   SpecialJt=No   GlobalX=-144   GlobalY=-144   GlobalZ=480   GUID=86105b92-fc90-4ad9-ae91-92fef4d88733
   Joint=10   CoordSys=GLOBAL   CoordType=Cartesian   XorR=-144   Y=144   Z=480   SpecialJt=No   GlobalX=-144   GlobalY=144   GlobalZ=480   GUID=7f4ef749-fb16-44b0-b9ab-c0afce9b4cdc
   Joint=11   CoordSys=GLOBAL   CoordType=Cartesian   XorR=144   Y=-144   Z=480   SpecialJt=No   GlobalX=144   GlobalY=-144   GlobalZ=480   GUID=06042974-bc15-4843-90b1-efd9d667129a
   Joint=12   CoordSys=GLOBAL   CoordType=Cartesian   XorR=144   Y=144   Z=480   SpecialJt=No   GlobalX=144   GlobalY=144   GlobalZ=480   GUID=abf56363-fb05-4bee-9a83-23f955558b8a
   Joint=13   CoordSys=GLOBAL   CoordType=Cartesian   XorR=-96   Y=-96   Z=720   SpecialJt=No   GlobalX=-96   GlobalY=-96   GlobalZ=720   GUID=201e20c4-4094-4b91-a35f-d1847d196c2e
   Joint=14   CoordSys=GLOBAL   CoordType=Cartesian   XorR=-96   Y=96   Z=720   SpecialJt=No   GlobalX=-96   GlobalY=96   GlobalZ=720   GUID=117c30b8-fe1d-4495-8d9c-ff6e794df020
   Joint=15   CoordSys=GLOBAL   CoordType=Cartesian   XorR=96   Y=-96   Z=720   SpecialJt=No   GlobalX=96   GlobalY=-96   GlobalZ=720   GUID=f25d5739-c35e-494a-b1e6-ac0d9257354a
   Joint=16   CoordSys=GLOBAL   CoordType=Cartesian   XorR=96   Y=96   Z=720   SpecialJt=No   GlobalX=96   GlobalY=96   GlobalZ=720   GUID=9a5ef0cc-2636-4bd3-a6db-cca6a455e1b2
   Joint=17   CoordSys=GLOBAL   CoordType=Cartesian   XorR=-48   Y=-48   Z=960   SpecialJt=No   GlobalX=-48   GlobalY=-48   GlobalZ=960   GUID=48b38561-42d1-42fa-abda-e93bcc56244d
   Joint=18   CoordSys=GLOBAL   CoordType=Cartesian   XorR=-48   Y=48   Z=960   SpecialJt=No   GlobalX=-48   GlobalY=48   GlobalZ=960   GUID=a4a7be1d-70d4-44e0-8635-8e38764f9696
   Joint=19   CoordSys=GLOBAL   CoordType=Cartesian   XorR=48   Y=-48   Z=960   SpecialJt=No   GlobalX=48   GlobalY=-48   GlobalZ=960   GUID=cc8a4692-b7cf-43a3-ada9-407c27d3abbe
   Joint=20   CoordSys=GLOBAL   CoordType=Cartesian   XorR=48   Y=48   Z=960   SpecialJt=No   GlobalX=48   GlobalY=48   GlobalZ=960   GUID=411024cb-6776-4cd3-bb41-a16f96ad34ce
 
TABLE:  "CONNECTIVITY - FRAME"
   Frame=1   JointI=1   JointJ=2   IsCurved=No   Length=249.415316289918   CentroidX=-216   CentroidY=-216   CentroidZ=120   GUID=c0b34969-7ecc-4bc2-801d-a19bf9fd91ea
   Frame=2   JointI=1   JointJ=3   IsCurved=No   Length=496.515860773853   CentroidX=-216   CentroidY=-24   CentroidZ=120   GUID=f8509432-9b50-4b69-95a9-dec86c141c6a
   Frame=3   JointI=1   JointJ=4   IsCurved=No   Length=496.515860773853   CentroidX=-24   CentroidY=-216   CentroidZ=120   GUID=d72da6d2-df93-4ca8-85cc-63c8a6b7c82f
   Frame=4   JointI=5   JointJ=3   IsCurved=No   Length=249.415316289918   CentroidX=-216   CentroidY=216   CentroidZ=120   GUID=62ff93d0-63b0-4868-882e-63a8e270213d
   Frame=5   JointI=5   JointJ=2   IsCurved=No   Length=496.515860773853   CentroidX=-216   CentroidY=24   CentroidZ=120   GUID=2c467bff-fd47-469c-ba95-382faa8ff252
   Frame=6   JointI=5   JointJ=6   IsCurved=No   Length=496.515860773853   CentroidX=-24   CentroidY=216   CentroidZ=120   GUID=6f691c36-d036-4372-bfb9-82a01cbc4ad5
   Frame=7   JointI=7   JointJ=4   IsCurved=No   Length=249.415316289918   CentroidX=216   CentroidY=-216   CentroidZ=120   GUID=fd478aeb-06f6-4e33-bc77-ff5f112e13b9
   Frame=8   JointI=7   JointJ=6   IsCurved=No   Length=496.515860773853   CentroidX=216   CentroidY=-24   CentroidZ=120   GUID=0f2b5480-c252-4e30-b5ca-bd91adee3f98
   Frame=9   JointI=7   JointJ=2   IsCurved=No   Length=496.515860773853   CentroidX=24   CentroidY=-216   CentroidZ=120   GUID=ceab4efe-e737-4c4f-9c6e-3681cf0ccf90
   Frame=10   JointI=8   JointJ=6   IsCurved=No   Length=249.415316289918   CentroidX=216   CentroidY=216   CentroidZ=120   GUID=8cd32d6f-4fd0-42d9-a812-848ba4fd72ab
   Frame=11   JointI=8   JointJ=4   IsCurved=No   Length=496.515860773853   CentroidX=216   CentroidY=24   CentroidZ=120   GUID=162b5ac0-022b-4337-a204-7e883b15613b
   Frame=12   JointI=8   JointJ=3   IsCurved=No   Length=496.515860773853   CentroidX=24   CentroidY=216   CentroidZ=120   GUID=659e8426-8b5c-4f2b-ba08-80f405e26eca
   Frame=13   JointI=2   JointJ=9   IsCurved=No   Length=249.415316289918   CentroidX=-168   CentroidY=-168   CentroidZ=360   GUID=4f98113d-f9ff-44fe-90c7-08310a72d57c
   Frame=14   JointI=2   JointJ=10   IsCurved=No   Length=415.692193816531   CentroidX=-168   CentroidY=-24   CentroidZ=360   GUID=fc6bcb15-12c4-4468-9757-db01abed3b4d
   Frame=15   JointI=2   JointJ=11   IsCurved=No   Length=415.692193816531   CentroidX=-24   CentroidY=-168   CentroidZ=360   GUID=dafce379-fabd-4104-ad37-83c3747cb7b4
   Frame=16   JointI=3   JointJ=10   IsCurved=No   Length=249.415316289918   CentroidX=-168   CentroidY=168   CentroidZ=360   GUID=44f9ad18-899e-4988-9be4-ed1ccfb0171a
   Frame=17   JointI=3   JointJ=9   IsCurved=No   Length=415.692193816531   CentroidX=-168   CentroidY=24   CentroidZ=360   GUID=7af07db8-c0a3-402d-8447-bf3a255080b8
   Frame=18   JointI=3   JointJ=12   IsCurved=No   Length=415.692193816531   CentroidX=-24   CentroidY=168   CentroidZ=360   GUID=076f89cb-e12c-47ce-9735-45907d3124eb
   Frame=19   JointI=4   JointJ=11   IsCurved=No   Length=249.415316289918   CentroidX=168   CentroidY=-168   CentroidZ=360   GUID=306d9e7b-6ed3-4fe1-b175-a4158769bbe5
   Frame=20   JointI=4   JointJ=12   IsCurved=No   Length=415.692193816531   CentroidX=168   CentroidY=-24   CentroidZ=360   GUID=e883e563-7681-4c1b-bf5b-f420955019e0
   Frame=21   JointI=4   JointJ=9   IsCurved=No   Length=415.692193816531   CentroidX=24   CentroidY=-168   CentroidZ=360   GUID=5a32d665-c9ad-4610-861e-727719fe247e
   Frame=22   JointI=6   JointJ=12   IsCurved=No   Length=249.415316289918   CentroidX=168   CentroidY=168   CentroidZ=360   GUID=de07e8c1-d7fa-42b6-bd8f-60d8a6928fe3
   Frame=23   JointI=6   JointJ=11   IsCurved=No   Length=415.692193816531   CentroidX=168   CentroidY=24   CentroidZ=360   GUID=d0630924-2a8d-489c-8092-e7c396b8c937
   Frame=24   JointI=6   JointJ=10   IsCurved=No   Length=415.692193816531   CentroidX=24   CentroidY=168   CentroidZ=360   GUID=cfe7c01c-32c4-40e7-83e1-4f7603b9ddb4
   Frame=25   JointI=9   JointJ=13   IsCurved=No   Length=249.415316289918   CentroidX=-120   CentroidY=-120   CentroidZ=600   GUID=1d1bfd6d-efed-48bb-aa67-c4bc3c6d8007
   Frame=26   JointI=9   JointJ=14   IsCurved=No   Length=342.788564570057   CentroidX=-120   CentroidY=-24   CentroidZ=600   GUID=b4b5ba8e-9436-4256-b60f-d399123c4504
   Frame=27   JointI=9   JointJ=15   IsCurved=No   Length=342.788564570057   CentroidX=-24   CentroidY=-120   CentroidZ=600   GUID=b2aecb5a-6d29-4884-9a5d-82c6fe023651
   Frame=28   JointI=10   JointJ=14   IsCurved=No   Length=249.415316289918   CentroidX=-120   CentroidY=120   CentroidZ=600   GUID=882dc53d-77c4-4354-8f72-db1702840caa
   Frame=29   JointI=10   JointJ=13   IsCurved=No   Length=342.788564570057   CentroidX=-120   CentroidY=24   CentroidZ=600   GUID=8079e4b4-fbf4-428e-a89a-4df0613ab93e
   Frame=30   JointI=10   JointJ=16   IsCurved=No   Length=342.788564570057   CentroidX=-24   CentroidY=120   CentroidZ=600   GUID=456ece56-c6eb-4853-b4dd-5a90e9f79b39
   Frame=31   JointI=11   JointJ=15   IsCurved=No   Length=249.415316289918   CentroidX=120   CentroidY=-120   CentroidZ=600   GUID=75454ac2-5014-4599-8318-4ef875d4e61a
   Frame=32   JointI=11   JointJ=16   IsCurved=No   Length=342.788564570057   CentroidX=120   CentroidY=-24   CentroidZ=600   GUID=bb6b2c26-1d79-428e-9808-4eca89c6f6ba
   Frame=33   JointI=11   JointJ=13   IsCurved=No   Length=342.788564570057   CentroidX=24   CentroidY=-120   CentroidZ=600   GUID=3a96d1a8-a043-4f2a-82f5-748578d196cd
   Frame=34   JointI=12   JointJ=16   IsCurved=No   Length=249.415316289918   CentroidX=120   CentroidY=120   CentroidZ=600   GUID=30763930-bdbd-4899-a460-2833bc3abf32
   Frame=35   JointI=12   JointJ=15   IsCurved=No   Length=342.788564570057   CentroidX=120   CentroidY=24   CentroidZ=600   GUID=f236b594-f020-4292-836f-8739270cae88
   Frame=36   JointI=12   JointJ=14   IsCurved=No   Length=342.788564570057   CentroidX=24   CentroidY=120   CentroidZ=600   GUID=130038cd-33ee-493d-9aba-60b477045269
   Frame=37   JointI=13   JointJ=17   IsCurved=No   Length=249.415316289918   CentroidX=-72   CentroidY=-72   CentroidZ=840   GUID=41a9b776-e2eb-48f9-86b6-9e9a7c600361
   Frame=38   JointI=13   JointJ=18   IsCurved=No   Length=283.971829588782   CentroidX=-72   CentroidY=-24   CentroidZ=840   GUID=cc19beb9-fc1d-4ef1-8a31-ca9a2c598f75
   Frame=39   JointI=13   JointJ=19   IsCurved=No   Length=283.971829588782   CentroidX=-24   CentroidY=-72   CentroidZ=840   GUID=fc16e1bb-609b-4aa9-92cc-0cfc914d0ec2
   Frame=40   JointI=14   JointJ=18   IsCurved=No   Length=249.415316289918   CentroidX=-72   CentroidY=72   CentroidZ=840   GUID=93412ac9-d0b9-4618-9b41-ad9c5c7667b7
   Frame=41   JointI=14   JointJ=17   IsCurved=No   Length=283.971829588782   CentroidX=-72   CentroidY=24   CentroidZ=840   GUID=c570b9c0-823b-4ca9-8743-03497b4c14f2
   Frame=42   JointI=14   JointJ=20   IsCurved=No   Length=283.971829588782   CentroidX=-24   CentroidY=72   CentroidZ=840   GUID=447e4e00-741f-4b7f-9a10-de2003daedfb
   Frame=43   JointI=15   JointJ=19   IsCurved=No   Length=249.415316289918   CentroidX=72   CentroidY=-72   CentroidZ=840   GUID=3b714674-0ad0-4926-ad91-1346bd4af9e8
   Frame=44   JointI=15   JointJ=20   IsCurved=No   Length=283.971829588782   CentroidX=72   CentroidY=-24   CentroidZ=840   GUID=e2fd6d1f-ef75-4d5b-9203-8bd2faf2ac37
   Frame=45   JointI=15   JointJ=17   IsCurved=No   Length=283.971829588782   CentroidX=24   CentroidY=-72   CentroidZ=840   GUID=885dd614-f782-41f0-b329-4afb1796e2e6
   Frame=46   JointI=16   JointJ=20   IsCurved=No   Length=249.415316289918   CentroidX=72   CentroidY=72   CentroidZ=840   GUID=1f60cc49-1cf3-43bb-8468-751c63af67bc
   Frame=47   JointI=16   JointJ=19   IsCurved=No   Length=283.971829588782   CentroidX=72   CentroidY=24   CentroidZ=840   GUID=705630cb-59ba-4916-bd30-b6f66350be33
   Frame=48   JointI=16   JointJ=18   IsCurved=No   Length=283.971829588782   CentroidX=24   CentroidY=72   CentroidZ=840   GUID=d740de16-124c-438a-b9f4-2ed45a5c4d3d
   Frame=49   JointI=2   JointJ=4   IsCurved=No   Length=384   CentroidX=0   CentroidY=-192   CentroidZ=240   GUID=e70625bd-e8c1-401d-8fd0-26a5ae85f4cb
   Frame=50   JointI=3   JointJ=6   IsCurved=No   Length=384   CentroidX=0   CentroidY=192   CentroidZ=240   GUID=79628ca7-9873-4bb1-8356-a106eeaf6cd2
   Frame=51   JointI=2   JointJ=3   IsCurved=No   Length=384   CentroidX=-192   CentroidY=0   CentroidZ=240   GUID=c6c0cd08-0850-4802-b17a-ebf5586b6dcc
   Frame=52   JointI=4   JointJ=6   IsCurved=No   Length=384   CentroidX=192   CentroidY=0   CentroidZ=240   GUID=4c27cc90-794f-4304-bb46-32cabe9e9dfc
   Frame=53   JointI=9   JointJ=11   IsCurved=No   Length=288   CentroidX=0   CentroidY=-144   CentroidZ=480   GUID=8119697d-3938-4d87-9fa3-0022efb6bd88
   Frame=54   JointI=10   JointJ=12   IsCurved=No   Length=288   CentroidX=0   CentroidY=144   CentroidZ=480   GUID=7f2bd8a6-1248-41be-98a9-038fb04e2072
   Frame=55   JointI=9   JointJ=10   IsCurved=No   Length=288   CentroidX=-144   CentroidY=0   CentroidZ=480   GUID=b1f7e233-6c26-48c5-9c18-4aee750ef84e
   Frame=56   JointI=11   JointJ=12   IsCurved=No   Length=288   CentroidX=144   CentroidY=0   CentroidZ=480   GUID=b64b6aba-21ee-4384-b370-25f0f29d874d
   Frame=57   JointI=13   JointJ=15   IsCurved=No   Length=192   CentroidX=0   CentroidY=-96   CentroidZ=720   GUID=35734452-eb6e-4dd4-b758-7f44e37f3c74
   Frame=58   JointI=14   JointJ=16   IsCurved=No   Length=192   CentroidX=0   CentroidY=96   CentroidZ=720   GUID=8df8407c-4fb0-4308-8c9a-8f75dc864641
   Frame=59   JointI=13   JointJ=14   IsCurved=No   Length=192   CentroidX=-96   CentroidY=0   CentroidZ=720   GUID=7348a985-39e4-4220-80ad-2c596e746453
   Frame=60   JointI=15   JointJ=16   IsCurved=No   Length=192   CentroidX=96   CentroidY=0   CentroidZ=720   GUID=6f011b59-7165-41aa-970f-e00a68fe90d5
   Frame=61   JointI=17   JointJ=19   IsCurved=No   Length=96   CentroidX=0   CentroidY=-48   CentroidZ=960   GUID=b39dc5b5-9d37-4fcc-9861-84fb8194e5c7
   Frame=62   JointI=18   JointJ=20   IsCurved=No   Length=96   CentroidX=0   CentroidY=48   CentroidZ=960   GUID=ee4a60ee-f842-4d28-8fd7-0e96574f6404
   Frame=63   JointI=17   JointJ=18   IsCurved=No   Length=96   CentroidX=-48   CentroidY=0   CentroidZ=960   GUID=f941fed1-e6ef-4547-a8b6-76a15f941c13
   Frame=64   JointI=19   JointJ=20   IsCurved=No   Length=96   CentroidX=48   CentroidY=0   CentroidZ=960   GUID=5a48455c-9118-4982-8c8c-0b385242313e
   Frame=65   JointI=3   JointJ=4   IsCurved=No   Length=543.058007951268   CentroidX=0   CentroidY=0   CentroidZ=240   GUID=7c4a8749-0263-47c2-91d8-15ca50d1f13f
   Frame=66   JointI=2   JointJ=6   IsCurved=No   Length=543.058007951268   CentroidX=0   CentroidY=0   CentroidZ=240   GUID=75c31c58-42a2-4578-914c-20b8a2439574
   Frame=67   JointI=10   JointJ=11   IsCurved=No   Length=407.293505963451   CentroidX=0   CentroidY=0   CentroidZ=480   GUID=3caeda3e-9f8a-4d30-8fc6-e721adfbaeb1
   Frame=68   JointI=9   JointJ=12   IsCurved=No   Length=407.293505963451   CentroidX=0   CentroidY=0   CentroidZ=480   GUID=1b656366-e91d-435d-9ecd-4e00f45d58c0
   Frame=69   JointI=14   JointJ=15   IsCurved=No   Length=271.529003975634   CentroidX=0   CentroidY=0   CentroidZ=720   GUID=5763dfef-7b20-474a-892d-f4500f625957
   Frame=70   JointI=13   JointJ=16   IsCurved=No   Length=271.529003975634   CentroidX=0   CentroidY=0   CentroidZ=720   GUID=9a320488-6d90-4141-94c7-1b6afbf92b36
   Frame=71   JointI=18   JointJ=19   IsCurved=No   Length=135.764501987817   CentroidX=0   CentroidY=0   CentroidZ=960   GUID=117f402b-0ae9-4fe1-978f-191ea3dcceab
   Frame=72   JointI=17   JointJ=20   IsCurved=No   Length=135.764501987817   CentroidX=0   CentroidY=0   CentroidZ=960   GUID=464fe43a-1629-4fae-9e6d-3058f7aff4ca
 
TABLE:  "JOINT RESTRAINT ASSIGNMENTS"
   Joint=1   U1=Yes   U2=Yes   U3=Yes   R1=No   R2=No   R3=No
   Joint=5   U1=Yes   U2=Yes   U3=Yes   R1=No   R2=No   R3=No
   Joint=7   U1=Yes   U2=Yes   U3=Yes   R1=No   R2=No   R3=No
   Joint=8   U1=Yes   U2=Yes   U3=Yes   R1=No   R2=No   R3=No
 
TABLE:  "FRAME SECTION ASSIGNMENTS"
   Frame=1   SectionType="I/Wide Flange"   AutoSelect=N.A.   AnalSect=FSEC1   DesignSect=FSEC1   MatProp=Default
   Frame=2   SectionType="I/Wide Flange"   AutoSelect=N.A.   AnalSect=FSEC1   DesignSect=FSEC1   MatProp=Default
   Frame=3   SectionType="I/Wide Flange"   AutoSelect=N.A.   AnalSect=FSEC1   DesignSect=FSEC1   MatProp=Default
   Frame=4   SectionType="I/Wide Flange"   AutoSelect=N.A.   AnalSect=FSEC1   DesignSect=FSEC1   MatProp=Default
   Frame=5   SectionType="I/Wide Flange"   AutoSelect=N.A.   AnalSect=FSEC1   DesignSect=FSEC1   MatProp=Default
   Frame=6   SectionType="I/Wide Flange"   AutoSelect=N.A.   AnalSect=FSEC1   DesignSect=FSEC1   MatProp=Default
   Frame=7   SectionType="I/Wide Flange"   AutoSelect=N.A.   AnalSect=FSEC1   DesignSect=FSEC1   MatProp=Default
   Frame=8   SectionType="I/Wide Flange"   AutoSelect=N.A.   AnalSect=FSEC1   DesignSect=FSEC1   MatProp=Default
   Frame=9   SectionType="I/Wide Flange"   AutoSelect=N.A.   AnalSect=FSEC1   DesignSect=FSEC1   MatProp=Default
   Frame=10   SectionType="I/Wide Flange"   AutoSelect=N.A.   AnalSect=FSEC1   DesignSect=FSEC1   MatProp=Default
   Frame=11   SectionType="I/Wide Flange"   AutoSelect=N.A.   AnalSect=FSEC1   DesignSect=FSEC1   MatProp=Default
   Frame=12   SectionType="I/Wide Flange"   AutoSelect=N.A.   AnalSect=FSEC1   DesignSect=FSEC1   MatProp=Default
   Frame=13   SectionType="I/Wide Flange"   AutoSelect=N.A.   AnalSect=FSEC1   DesignSect=FSEC1   MatProp=Default
   Frame=14   SectionType="I/Wide Flange"   AutoSelect=N.A.   AnalSect=FSEC1   DesignSect=FSEC1   MatProp=Default
   Frame=15   SectionType="I/Wide Flange"   AutoSelect=N.A.   AnalSect=FSEC1   DesignSect=FSEC1   MatProp=Default
   Frame=16   SectionType="I/Wide Flange"   AutoSelect=N.A.   AnalSect=FSEC1   DesignSect=FSEC1   MatProp=Default
   Frame=17   SectionType="I/Wide Flange"   AutoSelect=N.A.   AnalSect=FSEC1   DesignSect=FSEC1   MatProp=Default
   Frame=18   SectionType="I/Wide Flange"   AutoSelect=N.A.   AnalSect=FSEC1   DesignSect=FSEC1   MatProp=Default
   Frame=19   SectionType="I/Wide Flange"   AutoSelect=N.A.   AnalSect=FSEC1   DesignSect=FSEC1   MatProp=Default
   Frame=20   SectionType="I/Wide Flange"   AutoSelect=N.A.   AnalSect=FSEC1   DesignSect=FSEC1   MatProp=Default
# ... 52 like lines cut
 
TABLE:  "FRAME RELEASE ASSIGNMENTS 1 - GENERAL"
   Frame=2   PI=No   V2I=No   V3I=No   TI=Yes   M2I=Yes   M3I=Yes   PJ=No   V2J=No   V3J=No   TJ=No   M2J=Yes   M3J=Yes   PartialFix=No
   Frame=3   PI=No   V2I=No   V3I=No   TI=Yes   M2I=Yes   M3I=Yes   PJ=No   V2J=No   V3J=No   TJ=No   M2J=Yes   M3J=Yes   PartialFix=No
   Frame=5   PI=No   V2I=No   V3I=No   TI=Yes   M2I=Yes   M3I=Yes   PJ=No   V2J=No   V3J=No   TJ=No   M2J=Yes   M3J=Yes   PartialFix=No
   Frame=6   PI=No   V2I=No   V3I=No   TI=Yes   M2I=Yes   M3I=Yes   PJ=No   V2J=No   V3J=No   TJ=No   M2J=Yes   M3J=Yes   PartialFix=No
   Frame=8   PI=No   V2I=No   V3I=No   TI=Yes   M2I=Yes   M3I=Yes   PJ=No   V2J=No   V3J=No   TJ=No   M2J=Yes   M3J=Yes   PartialFix=No
   Frame=9   PI=No   V2I=No   V3I=No   TI=Yes   M2I=Yes   M3I=Yes   PJ=No   V2J=No   V3J=No   TJ=No   M2J=Yes   M3J=Yes   PartialFix=No
   Frame=11   PI=No   V2I=No   V3I=No   TI=Yes   M2I=Yes   M3I=Yes   PJ=No   V2J=No   V3J=No   TJ=No   M2J=Yes   M3J=Yes   PartialFix=No
   Frame=12   PI=No   V2I=No   V3I=No   TI=Yes   M2I=Yes   M3I=Yes   PJ=No   V2J=No   V3J=No   TJ=No   M2J=Yes   M3J=Yes   PartialFix=No
   Frame=14   PI=No   V2I=No   V3I=No   TI=Yes   M2I=Yes   M3I=Yes   PJ=No   V2J=No   V3J=No   TJ=No   M2J=Yes   M3J=Yes   PartialFix=No
   Frame=15   PI=No   V2I=No   V3I=No   TI=Yes   M2I=Yes   M3I=Yes   PJ=No   V2J=No   V3J=No   TJ=No   M2J=Yes   M3J=Yes   PartialFix=No
   Frame=17   PI=No   V2I=No   V3I=No   TI=Yes   M2I=Yes   M3I=Yes   PJ=No   V2J=No   V3J=No   TJ=No   M2J=Yes   M3J=Yes   PartialFix=No
   Frame=18   PI=No   V2I=No   V3I=No   TI=Yes   M2I=Yes   M3I=Yes   PJ=No   V2J=No   V3J=No   TJ=No   M2J=Yes   M3J=Yes   PartialFix=No
   Frame=20   PI=No   V2I=No   V3I=No   TI=Yes   M2I=Yes   M3I=Yes   PJ=No   V2J=No   V3J=No   TJ=No   M2J=Yes   M3J=Yes   PartialFix=No
   Frame=21   PI=No   V2I=No   V3I=No   TI=Yes   M2I=Yes   M3I=Yes   PJ=No   V2J=No   V3J=No   TJ=No   M2J=Yes   M3J=Yes   PartialFix=No
   Frame=23   PI=No   V2I=No   V3I=No   TI=Yes   M2I=Yes   M3I=Yes   PJ=No   V2J=No   V3J=No   TJ=No   M2J=Yes   M3J=Yes   PartialFix=No
   Frame=24   PI=No   V2I=No   V3I=No   TI=Yes   M2I=Yes   M3I=Yes   PJ=No   V2J=No   V3J=No   TJ=No   M2J=Yes   M3J=Yes   PartialFix=No
   Frame=26   PI=No   V2I=No   V3I=No   TI=Yes   M2I=Yes   M3I=Yes   PJ=No   V2J=No   V3J=No   TJ=No   M2J=Yes   M3J=Yes   PartialFix=No
   Frame=27   PI=No   V2I=No   V3I=No   TI=Yes   M2I=Yes   M3I=Yes   PJ=No   V2J=No   V3J=No   TJ=No   M2J=Yes   M3J=Yes   PartialFix=No
   Frame=29   PI=No   V2I=No   V3I=No   TI=Yes   M2I=Yes   M3I=Yes   PJ=No   V2J=No   V3J=No   TJ=No   M2J=Yes   M3J=Yes   PartialFix=No
   Frame=30   PI=No   V2I=No   V3I=No   TI=Yes   M2I=Yes   M3I=Yes   PJ=No   V2J=No   V3J=No   TJ=No   M2J=Yes   M3J=Yes   PartialFix=No
# ... 20 like lines cut
 
TABLE:  "FRAME OUTPUT STATION ASSIGNMENTS"
   Frame=1   StationType=MinNumSta   MinNumSta=3   AddAtElmInt=Yes   AddAtPtLoad=Yes
   Frame=2   StationType=MinNumSta   MinNumSta=3   AddAtElmInt=Yes   AddAtPtLoad=Yes
   Frame=3   StationType=MinNumSta   MinNumSta=3   AddAtElmInt=Yes   AddAtPtLoad=Yes
   Frame=4   StationType=MinNumSta   MinNumSta=3   AddAtElmInt=Yes   AddAtPtLoad=Yes
   Frame=5   StationType=MinNumSta   MinNumSta=3   AddAtElmInt=Yes   AddAtPtLoad=Yes
   Frame=6   StationType=MinNumSta   MinNumSta=3   AddAtElmInt=Yes   AddAtPtLoad=Yes
   Frame=7   StationType=MinNumSta   MinNumSta=3   AddAtElmInt=Yes   AddAtPtLoad=Yes
   Frame=8   StationType=MinNumSta   MinNumSta=3   AddAtElmInt=Yes   AddAtPtLoad=Yes
   Frame=9   StationType=MinNumSta   MinNumSta=3   AddAtElmInt=Yes   AddAtPtLoad=Yes
   Frame=10   StationType=MinNumSta   MinNumSta=3   AddAtElmInt=Yes   AddAtPtLoad=Yes
   Frame=11   StationType=MinNumSta   MinNumSta=3   AddAtElmInt=Yes   AddAtPtLoad=Yes
   Frame=12   StationType=MinNumSta   MinNumSta=3   AddAtElmInt=Yes   AddAtPtLoad=Yes
   Frame=13   StationType=MinNumSta   MinNumSta=3   AddAtElmInt=Yes   AddAtPtLoad=Yes
   Frame=14   StationType=MinNumSta   MinNumSta=3   AddAtElmInt=Yes   AddAtPtLoad=Yes
   Frame=15   StationType=MinNumSta   MinNumSta=3   AddAtElmInt=Yes   AddAtPtLoad=Yes
   Frame=16   StationType=MinNumSta   MinNumSta=3   AddAtElmInt=Yes   AddAtPtLoad=Yes
   Frame=17   StationType=MinNumSta   MinNumSta=3   AddAtElmInt=Yes   AddAtPtLoad=Yes
   Frame=18   StationType=MinNumSta   MinNumSta=3   AddAtElmInt=Yes   AddAtPtLoad=Yes
   Frame=19   StationType=MinNumSta   MinNumSta=3   AddAtElmInt=Yes   AddAtPtLoad=Yes
   Frame=20   StationType=MinNumSta   MinNumSta=3   AddAtElmInt=Yes   AddAtPtLoad=Yes
# ... 28 like lines cut
   Frame=49   StationType=MaxStaSpcg   MaxStaSpcg=24   AddAtElmInt=Yes   AddAtPtLoad=Yes
   Frame=50   StationType=MaxStaSpcg   MaxStaSpcg=24   AddAtElmInt=Yes   AddAtPtLoad=Yes
   Frame=51   StationType=MaxStaSpcg   MaxStaSpcg=24   AddAtElmInt=Yes   AddAtPtLoad=Yes
   Frame=52   StationType=MaxStaSpcg   MaxStaSpcg=24   AddAtElmInt=Yes   AddAtPtLoad=Yes
   Frame=53   StationType=MaxStaSpcg   MaxStaSpcg=24   AddAtElmInt=Yes   AddAtPtLoad=Yes
   Frame=54   StationType=MaxStaSpcg   MaxStaSpcg=24   AddAtElmInt=Yes   AddAtPtLoad=Yes
   Frame=55   StationType=MaxStaSpcg   MaxStaSpcg=24   AddAtElmInt=Yes   AddAtPtLoad=Yes
   Frame=56   StationType=MaxStaSpcg   MaxStaSpcg=24   AddAtElmInt=Yes   AddAtPtLoad=Yes
   Frame=57   StationType=MaxStaSpcg   MaxStaSpcg=24   AddAtElmInt=Yes   AddAtPtLoad=Yes
   Frame=58   StationType=MaxStaSpcg   MaxStaSpcg=24   AddAtElmInt=Yes   AddAtPtLoad=Yes
   Frame=59   StationType=MaxStaSpcg   MaxStaSpcg=24   AddAtElmInt=Yes   AddAtPtLoad=Yes
   Frame=60   StationType=MaxStaSpcg   MaxStaSpcg=24   AddAtElmInt=Yes   AddAtPtLoad=Yes
   Frame=61   StationType=MaxStaSpcg   MaxStaSpcg=24   AddAtElmInt=Yes   AddAtPtLoad=Yes
   Frame=62   StationType=MaxStaSpcg   MaxStaSpcg=24   AddAtElmInt=Yes   AddAtPtLoad=Yes
   Frame=63   StationType=MaxStaSpcg   MaxStaSpcg=24   AddAtElmInt=Yes   AddAtPtLoad=Yes
   Frame=64   StationType=MaxStaSpcg   MaxStaSpcg=24   AddAtElmInt=Yes   AddAtPtLoad=Yes
   Frame=65   StationType=MaxStaSpcg   MaxStaSpcg=24   AddAtElmInt=Yes   AddAtPtLoad=Yes
   Frame=66   StationType=MaxStaSpcg   MaxStaSpcg=24   AddAtElmInt=Yes   AddAtPtLoad=Yes
   Frame=67   StationType=MaxStaSpcg   MaxStaSpcg=24   AddAtElmInt=Yes   AddAtPtLoad=Yes
   Frame=68   StationType=MaxStaSpcg   MaxStaSpcg=24   AddAtElmInt=Yes   AddAtPtLoad=Yes
# ... 4 like lines cut
 
TABLE:  "FRAME AUTO MESH ASSIGNMENTS"
   Frame=1   AutoMesh=Yes   AtJoints=Yes   AtFrames=No   NumSegments=0   MaxLength=0   MaxDegrees=0
   Frame=2   AutoMesh=Yes   AtJoints=Yes   AtFrames=No   NumSegments=0   MaxLength=0   MaxDegrees=0
   Frame=3   AutoMesh=Yes   AtJoints=Yes   AtFrames=No   NumSegments=0   MaxLength=0   MaxDegrees=0
   Frame=4   AutoMesh=Yes   AtJoints=Yes   AtFrames=No   NumSegments=0   MaxLength=0   MaxDegrees=0
   Frame=5   AutoMesh=Yes   AtJoints=Yes   AtFrames=No   NumSegments=0   MaxLength=0   MaxDegrees=0
   Frame=6   AutoMesh=Yes   AtJoints=Yes   AtFrames=No   NumSegments=0   MaxLength=0   MaxDegrees=0
   Frame=7   AutoMesh=Yes   AtJoints=Yes   AtFrames=No   NumSegments=0   MaxLength=0   MaxDegrees=0
   Frame=8   AutoMesh=Yes   AtJoints=Yes   AtFrames=No   NumSegments=0   MaxLength=0   MaxDegrees=0
   Frame=9   AutoMesh=Yes   AtJoints=Yes   AtFrames=No   NumSegments=0   MaxLength=0   MaxDegrees=0
   Frame=10   AutoMesh=Yes   AtJoints=Yes   AtFrames=No   NumSegments=0   MaxLength=0   MaxDegrees=0
   Frame=11   AutoMesh=Yes   AtJoints=Yes   AtFrames=No   NumSegments=0   MaxLength=0   MaxDegrees=0
   Frame=12   AutoMesh=Yes   AtJoints=Yes   AtFrames=No   NumSegments=0   MaxLength=0   MaxDegrees=0
   Frame=13   AutoMesh=Yes   AtJoints=Yes   AtFrames=No   NumSegments=0   MaxLength=0   MaxDegrees=0
   Frame=14   AutoMesh=Yes   AtJoints=Yes   AtFrames=No   NumSegments=0   MaxLength=0   MaxDegrees=0
   Frame=15   AutoMesh=Yes   AtJoints=Yes   AtFrames=No   NumSegments=0   MaxLength=0   MaxDegrees=0
   Frame=16   AutoMesh=Yes   AtJoints=Yes   AtFrames=No   NumSegments=0   MaxLength=0   MaxDegrees=0
   Frame=17   AutoMesh=Yes   AtJoints=Yes   AtFrames=No   NumSegments=0   MaxLength=0   MaxDegrees=0
   Frame=18   AutoMesh=Yes   AtJoints=Yes   AtFrames=No   NumSegments=0   MaxLength=0   MaxDegrees=0
   Frame=19   AutoMesh=Yes   AtJoints=Yes   AtFrames=No   NumSegments=0   MaxLength=0   MaxDegrees=0
   Frame=20   AutoMesh=Yes   AtJoints=Yes   AtFrames=No   NumSegments=0   MaxLength=0   MaxDegrees=0
# ... 52 like lines cut
 
TABLE:  "FRAME LOAD TRANSFER OPTIONS"
   Frame=1   Transfer=Yes
   Frame=2   Transfer=Yes
   Frame=3   Transfer=Yes
   Frame=4   Transfer=Yes
   Frame=5   Transfer=Yes
   Frame=6   Transfer=Yes
   Frame=7   Transfer=Yes
   Frame=8   Transfer=Yes
   Frame=9   Transfer=Yes
   Frame=10   Transfer=Yes
   Frame=11   Transfer=Yes
   Frame=12   Transfer=Yes
   Frame=13   Transfer=Yes
   Frame=14   Transfer=Yes
   Frame=15   Transfer=Yes
   Frame=16   Transfer=Yes
   Frame=17   Transfer=Yes
   Frame=18   Transfer=Yes
   Frame=19   Transfer=Yes
   Frame=20   Transfer=Yes
# ... 52 like lines cut
 
TABLE:  "FRAME DESIGN PROCEDURES"
   Frame=1   DesignProc="From Material"
   Frame=2   DesignProc="From Material"
   Frame=3   DesignProc="From Material"
   Frame=4   DesignProc="From Material"
   Frame=5   DesignProc="From Material"
   Frame=6   DesignProc="From Material"
   Frame=7   DesignProc="From Material"
   Frame=8   DesignProc="From Material"
   Frame=9   DesignProc="From Material"
   Frame=10   DesignProc="From Material"
   Frame=11   DesignProc="From Material"
   Frame=12   DesignProc="From Material"
   Frame=13   DesignProc="From Material"
   Frame=14   DesignProc="From Material"
   Frame=15   DesignProc="From Material"
   Frame=16   DesignProc="From Material"
   Frame=17   DesignProc="From Material"
   Frame=18   DesignProc="From Material"
   Frame=19   DesignProc="From Material"
   Frame=20   DesignProc="From Material"
# ... 52 like lines cut
 
TABLE:  "OVERWRITES - STEEL DESIGN - AISC 360-16"
   Frame=1   DesignSect="Program Determined"   FrameType="Program Determined"   Fy=0   RLLF=0   AreaRatio=0   XLMajor=0   XLMinor=0   XLLTB=0   K1Major=0   K1Minor=0   K2Major=0   K2Minor=0   KLTB=0   CmMajor=0   CmMinor=0   Cb=0 _
        B1Major=0   B1Minor=0   B2Major=0   B2Minor=0   HSSReduceT="Program Determined"   HSSWelding="Program Determined"   Omega0=0   Ry=0   Pnc=0   Pnt=0   Mn3=0   Mn2=0   Vn2=0   Vn3=0   CheckDefl="Program Determined" _
        DeflType="Program Determined"   DLRat=0   SDLAndLLRat=0   LLRat=0   TotalRat=0   NetRat=0   DLAbs=0   SDLAndLLAbs=0   LLAbs=0   TotalAbs=0   NetAbs=0   SpecCamber=0   DCLimit=0
   Frame=2   DesignSect="Program Determined"   FrameType="Program Determined"   Fy=0   RLLF=0   AreaRatio=0   XLMajor=0   XLMinor=0   XLLTB=0   K1Major=0   K1Minor=0   K2Major=0   K2Minor=0   KLTB=0   CmMajor=0   CmMinor=0   Cb=0 _
        B1Major=0   B1Minor=0   B2Major=0   B2Minor=0   HSSReduceT="Program Determined"   HSSWelding="Program Determined"   Omega0=0   Ry=0   Pnc=0   Pnt=0   Mn3=0   Mn2=0   Vn2=0   Vn3=0   CheckDefl="Program Determined" _
        DeflType="Program Determined"   DLRat=0   SDLAndLLRat=0   LLRat=0   TotalRat=0   NetRat=0   DLAbs=0   SDLAndLLAbs=0   LLAbs=0   TotalAbs=0   NetAbs=0   SpecCamber=0   DCLimit=0
   Frame=3   DesignSect="Program Determined"   FrameType="Program Determined"   Fy=0   RLLF=0   AreaRatio=0   XLMajor=0   XLMinor=0   XLLTB=0   K1Major=0   K1Minor=0   K2Major=0   K2Minor=0   KLTB=0   CmMajor=0   CmMinor=0   Cb=0 _
        B1Major=0   B1Minor=0   B2Major=0   B2Minor=0   HSSReduceT="Program Determined"   HSSWelding="Program Determined"   Omega0=0   Ry=0   Pnc=0   Pnt=0   Mn3=0   Mn2=0   Vn2=0   Vn3=0   CheckDefl="Program Determined" _
        DeflType="Program Determined"   DLRat=0   SDLAndLLRat=0   LLRat=0   TotalRat=0   NetRat=0   DLAbs=0   SDLAndLLAbs=0   LLAbs=0   TotalAbs=0   NetAbs=0   SpecCamber=0   DCLimit=0
   Frame=4   DesignSect="Program Determined"   FrameType="Program Determined"   Fy=0   RLLF=0   AreaRatio=0   XLMajor=0   XLMinor=0   XLLTB=0   K1Major=0   K1Minor=0   K2Major=0   K2Minor=0   KLTB=0   CmMajor=0   CmMinor=0   Cb=0 _
        B1Major=0   B1Minor=0   B2Major=0   B2Minor=0   HSSReduceT="Program Determined"   HSSWelding="Program Determined"   Omega0=0   Ry=0   Pnc=0   Pnt=0   Mn3=0   Mn2=0   Vn2=0   Vn3=0   CheckDefl="Program Determined" _
        DeflType="Program Determined"   DLRat=0   SDLAndLLRat=0   LLRat=0   TotalRat=0   NetRat=0   DLAbs=0   SDLAndLLAbs=0   LLAbs=0   TotalAbs=0   NetAbs=0   SpecCamber=0   DCLimit=0
   Frame=5   DesignSect="Program Determined"   FrameType="Program Determined"   Fy=0   RLLF=0   AreaRatio=0   XLMajor=0   XLMinor=0   XLLTB=0   K1Major=0   K1Minor=0   K2Major=0   K2Minor=0   KLTB=0   CmMajor=0   CmMinor=0   Cb=0 _
        B1Major=0   B1Minor=0   B2Major=0   B2Minor=0   HSSReduceT="Program Determined"   HSSWelding="Program Determined"   Omega0=0   Ry=0   Pnc=0   Pnt=0   Mn3=0   Mn2=0   Vn2=0   Vn3=0   CheckDefl="Program Determined" _
        DeflType="Program Determined"   DLRat=0   SDLAndLLRat=0   LLRat=0   TotalRat=0   NetRat=0   DLAbs=0   SDLAndLLAbs=0   LLAbs=0   TotalAbs=0   NetAbs=0   SpecCamber=0   DCLimit=0
   Frame=6   DesignSect="Program Determined"   FrameType="Program Determined"   Fy=0   RLLF=0   AreaRatio=0   XLMajor=0   XLMinor=0   XLLTB=0   K1Major=0   K1Minor=0   K2Major=0   K2Minor=0   KLTB=0   CmMajor=0   CmMinor=0   Cb=0 _
        B1Major=0   B1Minor=0   B2Major=0   B2Minor=0   HSSReduceT="Program Determined"   HSSWelding="Program Determined"   Omega0=0   Ry=0   Pnc=0   Pnt=0   Mn3=0   Mn2=0   Vn2=0   Vn3=0   CheckDefl="Program Determined" _
        DeflType="Program Determined"   DLRat=0   SDLAndLLRat=0   LLRat=0   TotalRat=0   NetRat=0   DLAbs=0   SDLAndLLAbs=0   LLAbs=0   TotalAbs=0   NetAbs=0   SpecCamber=0   DCLimit=0
   Frame=7   DesignSect="Program Determined"   FrameType="Program Determined"   Fy=0   RLLF=0   AreaRatio=0   XLMajor=0   XLMinor=0   XLLTB=0   K1Major=0   K1Minor=0   K2Major=0   K2Minor=0   KLTB=0   CmMajor=0   CmMinor=0   Cb=0 _
        B1Major=0   B1Minor=0   B2Major=0   B2Minor=0   HSSReduceT="Program Determined"   HSSWelding="Program Determined"   Omega0=0   Ry=0   Pnc=0   Pnt=0   Mn3=0   Mn2=0   Vn2=0   Vn3=0   CheckDefl="Program Determined" _
        DeflType="Program Determined"   DLRat=0   SDLAndLLRat=0   LLRat=0   TotalRat=0   NetRat=0   DLAbs=0   SDLAndLLAbs=0   LLAbs=0   TotalAbs=0   NetAbs=0   SpecCamber=0   DCLimit=0
   Frame=8   DesignSect="Program Determined"   FrameType="Program Determined"   Fy=0   RLLF=0   AreaRatio=0   XLMajor=0   XLMinor=0   XLLTB=0   K1Major=0   K1Minor=0   K2Major=0   K2Minor=0   KLTB=0   CmMajor=0   CmMinor=0   Cb=0 _
        B1Major=0   B1Minor=0   B2Major=0   B2Minor=0   HSSReduceT="Program Determined"   HSSWelding="Program Determined"   Omega0=0   Ry=0   Pnc=0   Pnt=0   Mn3=0   Mn2=0   Vn2=0   Vn3=0   CheckDefl="Program Determined" _
        DeflType="Program Determined"   DLRat=0   SDLAndLLRat=0   LLRat=0   TotalRat=0   NetRat=0   DLAbs=0   SDLAndLLAbs=0   LLAbs=0   TotalAbs=0   NetAbs=0   SpecCamber=0   DCLimit=0
   Frame=9   DesignSect="Program Determined"   FrameType="Program Determined"   Fy=0   RLLF=0   AreaRatio=0   XLMajor=0   XLMinor=0   XLLTB=0   K1Major=0   K1Minor=0   K2Major=0   K2Minor=0   KLTB=0   CmMajor=0   CmMinor=0   Cb=0 _
        B1Major=0   B1Minor=0   B2Major=0   B2Minor=0   HSSReduceT="Program Determined"   HSSWelding="Program Determined"   Omega0=0   Ry=0   Pnc=0   Pnt=0   Mn3=0   Mn2=0   Vn2=0   Vn3=0   CheckDefl="Program Determined" _
        DeflType="Program Determined"   DLRat=0   SDLAndLLRat=0   LLRat=0   TotalRat=0   NetRat=0   DLAbs=0   SDLAndLLAbs=0   LLAbs=0   TotalAbs=0   NetAbs=0   SpecCamber=0   DCLimit=0
   Frame=10   DesignSect="Program Determined"   FrameType="Program Determined"   Fy=0   RLLF=0   AreaRatio=0   XLMajor=0   XLMinor=0   XLLTB=0   K1Major=0   K1Minor=0   K2Major=0   K2Minor=0   KLTB=0   CmMajor=0   CmMinor=0   Cb=0 _
        B1Major=0   B1Minor=0   B2Major=0   B2Minor=0   HSSReduceT="Program Determined"   HSSWelding="Program Determined"   Omega0=0   Ry=0   Pnc=0   Pnt=0   Mn3=0   Mn2=0   Vn2=0   Vn3=0   CheckDefl="Program Determined" _
        DeflType="Program Determined"   DLRat=0   SDLAndLLRat=0   LLRat=0   TotalRat=0   NetRat=0   DLAbs=0   SDLAndLLAbs=0   LLAbs=0   TotalAbs=0   NetAbs=0   SpecCamber=0   DCLimit=0
   Frame=11   DesignSect="Program Determined"   FrameType="Program Determined"   Fy=0   RLLF=0   AreaRatio=0   XLMajor=0   XLMinor=0   XLLTB=0   K1Major=0   K1Minor=0   K2Major=0   K2Minor=0   KLTB=0   CmMajor=0   CmMinor=0   Cb=0 _
        B1Major=0   B1Minor=0   B2Major=0   B2Minor=0   HSSReduceT="Program Determined"   HSSWelding="Program Determined"   Omega0=0   Ry=0   Pnc=0   Pnt=0   Mn3=0   Mn2=0   Vn2=0   Vn3=0   CheckDefl="Program Determined" _
        DeflType="Program Determined"   DLRat=0   SDLAndLLRat=0   LLRat=0   TotalRat=0   NetRat=0   DLAbs=0   SDLAndLLAbs=0   LLAbs=0   TotalAbs=0   NetAbs=0   SpecCamber=0   DCLimit=0
   Frame=12   DesignSect="Program Determined"   FrameType="Program Determined"   Fy=0   RLLF=0   AreaRatio=0   XLMajor=0   XLMinor=0   XLLTB=0   K1Major=0   K1Minor=0   K2Major=0   K2Minor=0   KLTB=0   CmMajor=0   CmMinor=0   Cb=0 _
        B1Major=0   B1Minor=0   B2Major=0   B2Minor=0   HSSReduceT="Program Determined"   HSSWelding="Program Determined"   Omega0=0   Ry=0   Pnc=0   Pnt=0   Mn3=0   Mn2=0   Vn2=0   Vn3=0   CheckDefl="Program Determined" _
        DeflType="Program Determined"   DLRat=0   SDLAndLLRat=0   LLRat=0   TotalRat=0   NetRat=0   DLAbs=0   SDLAndLLAbs=0   LLAbs=0   TotalAbs=0   NetAbs=0   SpecCamber=0   DCLimit=0
   Frame=13   DesignSect="Program Determined"   FrameType="Program Determined"   Fy=0   RLLF=0   AreaRatio=0   XLMajor=0   XLMinor=0   XLLTB=0   K1Major=0   K1Minor=0   K2Major=0   K2Minor=0   KLTB=0   CmMajor=0   CmMinor=0   Cb=0 _
        B1Major=0   B1Minor=0   B2Major=0   B2Minor=0   HSSReduceT="Program Determined"   HSSWelding="Program Determined"   Omega0=0   Ry=0   Pnc=0   Pnt=0   Mn3=0   Mn2=0   Vn2=0   Vn3=0   CheckDefl="Program Determined" _
        DeflType="Program Determined"   DLRat=0   SDLAndLLRat=0   LLRat=0   TotalRat=0   NetRat=0   DLAbs=0   SDLAndLLAbs=0   LLAbs=0   TotalAbs=0   NetAbs=0   SpecCamber=0   DCLimit=0
   Frame=14   DesignSect="Program Determined"   FrameType="Program Determined"   Fy=0   RLLF=0   AreaRatio=0   XLMajor=0   XLMinor=0   XLLTB=0   K1Major=0   K1Minor=0   K2Major=0   K2Minor=0   KLTB=0   CmMajor=0   CmMinor=0   Cb=0 _
        B1Major=0   B1Minor=0   B2Major=0   B2Minor=0   HSSReduceT="Program Determined"   HSSWelding="Program Determined"   Omega0=0   Ry=0   Pnc=0   Pnt=0   Mn3=0   Mn2=0   Vn2=0   Vn3=0   CheckDefl="Program Determined" _
        DeflType="Program Determined"   DLRat=0   SDLAndLLRat=0   LLRat=0   TotalRat=0   NetRat=0   DLAbs=0   SDLAndLLAbs=0   LLAbs=0   TotalAbs=0   NetAbs=0   SpecCamber=0   DCLimit=0
   Frame=15   DesignSect="Program Determined"   FrameType="Program Determined"   Fy=0   RLLF=0   AreaRatio=0   XLMajor=0   XLMinor=0   XLLTB=0   K1Major=0   K1Minor=0   K2Major=0   K2Minor=0   KLTB=0   CmMajor=0   CmMinor=0   Cb=0 _
        B1Major=0   B1Minor=0   B2Major=0   B2Minor=0   HSSReduceT="Program Determined"   HSSWelding="Program Determined"   Omega0=0   Ry=0   Pnc=0   Pnt=0   Mn3=0   Mn2=0   Vn2=0   Vn3=0   CheckDefl="Program Determined" _
        DeflType="Program Determined"   DLRat=0   SDLAndLLRat=0   LLRat=0   TotalRat=0   NetRat=0   DLAbs=0   SDLAndLLAbs=0   LLAbs=0   TotalAbs=0   NetAbs=0   SpecCamber=0   DCLimit=0
   Frame=16   DesignSect="Program Determined"   FrameType="Program Determined"   Fy=0   RLLF=0   AreaRatio=0   XLMajor=0   XLMinor=0   XLLTB=0   K1Major=0   K1Minor=0   K2Major=0   K2Minor=0   KLTB=0   CmMajor=0   CmMinor=0   Cb=0 _
        B1Major=0   B1Minor=0   B2Major=0   B2Minor=0   HSSReduceT="Program Determined"   HSSWelding="Program Determined"   Omega0=0   Ry=0   Pnc=0   Pnt=0   Mn3=0   Mn2=0   Vn2=0   Vn3=0   CheckDefl="Program Determined" _
        DeflType="Program Determined"   DLRat=0   SDLAndLLRat=0   LLRat=0   TotalRat=0   NetRat=0   DLAbs=0   SDLAndLLAbs=0   LLAbs=0   TotalAbs=0   NetAbs=0   SpecCamber=0   DCLimit=0
   Frame=17   DesignSect="Program Determined"   FrameType="Program Determined"   Fy=0   RLLF=0   AreaRatio=0   XLMajor=0   XLMinor=0   XLLTB=0   K1Major=0   K1Minor=0   K2Major=0   K2Minor=0   KLTB=0   CmMajor=0   CmMinor=0   Cb=0 _
        B1Major=0   B1Minor=0   B2Major=0   B2Minor=0   HSSReduceT="Program Determined"   HSSWelding="Program Determined"   Omega0=0   Ry=0   Pnc=0   Pnt=0   Mn3=0   Mn2=0   Vn2=0   Vn3=0   CheckDefl="Program Determined" _
        DeflType="Program Determined"   DLRat=0   SDLAndLLRat=0   LLRat=0   TotalRat=0   NetRat=0   DLAbs=0   SDLAndLLAbs=0   LLAbs=0   TotalAbs=0   NetAbs=0   SpecCamber=0   DCLimit=0
   Frame=18   DesignSect="Program Determined"   FrameType="Program Determined"   Fy=0   RLLF=0   AreaRatio=0   XLMajor=0   XLMinor=0   XLLTB=0   K1Major=0   K1Minor=0   K2Major=0   K2Minor=0   KLTB=0   CmMajor=0   CmMinor=0   Cb=0 _
        B1Major=0   B1Minor=0   B2Major=0   B2Minor=0   HSSReduceT="Program Determined"   HSSWelding="Program Determined"   Omega0=0   Ry=0   Pnc=0   Pnt=0   Mn3=0   Mn2=0   Vn2=0   Vn3=0   CheckDefl="Program Determined" _
        DeflType="Program Determined"   DLRat=0   SDLAndLLRat=0   LLRat=0   TotalRat=0   NetRat=0   DLAbs=0   SDLAndLLAbs=0   LLAbs=0   TotalAbs=0   NetAbs=0   SpecCamber=0   DCLimit=0
   Frame=19   DesignSect="Program Determined"   FrameType="Program Determined"   Fy=0   RLLF=0   AreaRatio=0   XLMajor=0   XLMinor=0   XLLTB=0   K1Major=0   K1Minor=0   K2Major=0   K2Minor=0   KLTB=0   CmMajor=0   CmMinor=0   Cb=0 _
        B1Major=0   B1Minor=0   B2Major=0   B2Minor=0   HSSReduceT="Program Determined"   HSSWelding="Program Determined"   Omega0=0   Ry=0   Pnc=0   Pnt=0   Mn3=0   Mn2=0   Vn2=0   Vn3=0   CheckDefl="Program Determined" _
        DeflType="Program Determined"   DLRat=0   SDLAndLLRat=0   LLRat=0   TotalRat=0   NetRat=0   DLAbs=0   SDLAndLLAbs=0   LLAbs=0   TotalAbs=0   NetAbs=0   SpecCamber=0   DCLimit=0
   Frame=20   DesignSect="Program Determined"   FrameType="Program Determined"   Fy=0   RLLF=0   AreaRatio=0   XLMajor=0   XLMinor=0   XLLTB=0   K1Major=0   K1Minor=0   K2Major=0   K2Minor=0   KLTB=0   CmMajor=0   CmMinor=0   Cb=0 _
        B1Major=0   B1Minor=0   B2Major=0   B2Minor=0   HSSReduceT="Program Determined"   HSSWelding="Program Determined"   Omega0=0   Ry=0   Pnc=0   Pnt=0   Mn3=0   Mn2=0   Vn2=0   Vn3=0   CheckDefl="Program Determined" _
        DeflType="Program Determined"   DLRat=0   SDLAndLLRat=0   LLRat=0   TotalRat=0   NetRat=0   DLAbs=0   SDLAndLLAbs=0   LLAbs=0   TotalAbs=0   NetAbs=0   SpecCamber=0   DCLimit=0
# ... 156 like lines cut
 
TABLE:  "PREFERENCES - DIMENSIONAL"
   MergeTol=0.1   FineGrid=12   Nudge=12   SelectTol=3   SnapTol=12   SLineThick=2   PLineThick=4   MaxFont=12   MinFont=6   AutoZoom=10   ShrinkFact=70   TextFileLen=240
 
TABLE:  "PREFERENCES - STEEL DESIGN - AISC 360-16"
   THDesign=Envelopes   FrameType=SMF   PatLLF=0.75   SRatioLimit=0.95   MaxIter=1   SDC=D   SeisCode=No   SeisLoad=No   ImpFactor=1   SystemRho=1   SystemSds=0.5   SystemR=8   SystemCd=5.5   Omega0=3   Provision=LRFD _
        AMethod="Direct Analysis"   SOMethod="General 2nd Order"   SRMethod="Tau-b Fixed"   NLCoeff=0.002   PhiB=0.9   PhiC=0.9   PhiTY=0.9   PhiTF=0.75   PhiV=0.9   PhiVRolledI=1   PhiVT=0.9   PlugWeld=Yes   HSSWelding=ERW   HSSReduceT=No _
        CheckDefl=No   DLRat=120   SDLAndLLRat=120   LLRat=360   TotalRat=240   NetRat=240
 
TABLE:  "PREFERENCES - CONCRETE DESIGN - ACI 318-19"
   THDesign=Envelopes   NumCurves=24   NumPoints=11   MinEccen=Yes   BCCDesign=Yes   IgnoreBPu=Yes   CTorsion=Yes   PatLLF=0.75   UFLimit=0.95   SeisCat=D   Rho=1   Sds=0.5   PhiT=0.9   PhiCTied=0.65   PhiCSpiral=0.75   PhiV=0.75 _
        PhiVSeismic=0.6   PhiVJoint=0.85   TanTheta=1
 
TABLE:  "PREFERENCES - CONCRETE SHELL DESIGN - EUROCODE 2-2004"
   Country="CEN Default"   GammaS=1.15   GammaC=1.5   AlphaCC=1   AlphaCT=1   CrackCond="Program Determined"   ShrDesMet="Method 1"   CotTheta=1   AddTenForce=Yes
 
TABLE:  "PREFERENCES - ALUMINUM DESIGN - AA 2015"
   THDesign=Envelopes   SRatioLimit=1   Provision=LRFD   LatFact=1.33333333333333   UseLatFact=No   Bridge=No   PhiTy=0.9   PhiTr=0.75   PhiC=0.9   PhiBo=0.9   PhiBr=0.75   PhiVo=0.9   PhiVr=0.75
 
TABLE:  "PREFERENCES - COLD FORMED DESIGN - AISI-16"
   THDesign=Envelopes   FrameType="Braced Frame"   SRatioLimit=1   SOMethod="General 2nd Order"   Provision=LRFD   LatFact=1.33333333333333   UseLatFact=No   PhiTy=0.9   PhiTr=0.75   PhiC=0.85   PhiB=0.9   PhiBPipe=0.95   PhiV=0.95
 
TABLE:  "OPTIONS - COLORS - DISPLAY"
   DeviceType=Screen   Points=Blue   LinesFrame=Blue   LinesFrmDL=Blue   LinesCable=Green   LinesTendon=Green   SpringLinks=Green   Restraints=Green   Releases=Green   Axes=Cyan   Text=Black   ShadowLines=Gray8Dark   GuideLines=Gray8Dark _
        Highlight=Red   Selection=10504778   AreaFillBot=Red   AreaFillTop=16744703   AreaFillSd=Red   AreaEdge=DarkRed   SolidF1=Red   SolidF2=Blue   SolidF3=Green   SolidF4=Yellow   SolidF5=White   SolidF6=Cyan   SolidEdge=DarkRed _
        Floor=Gray4   Background=White   BGLowLeft=White   BGLowRight=White   BGUpRight=White   Darkness=0
   DeviceType=Printer   Points=Gray8Dark   LinesFrame=Black   LinesFrmDL=Gray4   LinesCable=Black   LinesTendon=Black   SpringLinks=Gray8Dark   Restraints=Gray8Dark   Releases=Gray4   Axes=Black   Text=Black   ShadowLines=Gray4 _
        GuideLines=Gray4   Highlight=Black   Selection=Black   AreaFillBot=Gray4   AreaFillTop=Gray8Dark   AreaFillSd=Gray4   AreaEdge=Black   SolidF1=Gray1Light   SolidF2=Gray2   SolidF3=Gray3   SolidF4=Gray4   SolidF5=Gray5 _
        SolidF6=Gray6   SolidEdge=Black   Floor=Gray4   Background=White   BGLowLeft=White   BGLowRight=White   BGUpRight=White   Darkness=0.5
   DeviceType="Color Printer"   Points=Blue   LinesFrame=Blue   LinesFrmDL=Blue   LinesCable=Green   LinesTendon=Green   SpringLinks=Green   Restraints=Green   Releases=Green   Axes=Cyan   Text=Black   ShadowLines=Gray8Dark _
        GuideLines=Gray8Dark   Highlight=Red   Selection=10504778   AreaFillBot=Red   AreaFillTop=16744703   AreaFillSd=Red   AreaEdge=DarkRed   SolidF1=Red   SolidF2=Blue   SolidF3=Green   SolidF4=Yellow   SolidF5=White   SolidF6=Cyan _
        SolidEdge=DarkRed   Floor=Gray4   Background=White   BGLowLeft=White   BGLowRight=White   BGUpRight=White   Darkness=0.5
 
TABLE:  "OPTIONS - COLORS - OUTPUT"
   DeviceType=Screen   Contour1=13107400   Contour2=6553828   Contour3=Red   Contour4=16639   Contour5=Orange   Contour6=43775   Contour7=54527   Contour8=Yellow   Contour9=65408   Contour10=Green   Contour11=8453888   Contour12=Cyan _
        Contour13=16755200   Contour14=16733440   Contour15=Blue   Transpare=0   Ratio1=Cyan   Ratio2=Green   Ratio3=Yellow   Ratio4=Orange   Ratio5=Red   RatioNotD=Gray4   RatioNotC=Red   RatioVal1=0.5   RatioVal2=0.7   RatioVal3=0.9 _
        RatioVal4=1   DFillPos=Blue   DFillNeg=Red   DFillRPos=9498256   DFillRNeg=9498256
   DeviceType=Printer   Contour1=Black   Contour2=3158064   Contour3=4210752   Contour4=5263440   Contour5=6316128   Contour6=7368816   Contour7=Gray8Dark   Contour8=Gray7   Contour9=Gray6   Contour10=Gray5   Contour11=Gray4 _
        Contour12=Gray3   Contour13=Gray2   Contour14=Gray1Light   Contour15=White   Transpare=0   Ratio1=Gray2   Ratio2=Gray4   Ratio3=Gray8Dark   Ratio4=4210752   Ratio5=Black   RatioNotD=Gray4   RatioNotC=Black   RatioVal1=0.5 _
        RatioVal2=0.7   RatioVal3=0.9   RatioVal4=1   DFillPos=Gray8Dark   DFillNeg=Gray8Dark   DFillRPos=4210752   DFillRNeg=4210752
   DeviceType="Color Printer"   Contour1=13107400   Contour2=6553828   Contour3=Red   Contour4=16639   Contour5=Orange   Contour6=43775   Contour7=54527   Contour8=Yellow   Contour9=65408   Contour10=Green   Contour11=8453888 _
        Contour12=Cyan   Contour13=16755200   Contour14=16733440   Contour15=Blue   Transpare=0   Ratio1=Cyan   Ratio2=Green   Ratio3=Yellow   Ratio4=Orange   Ratio5=Red   RatioNotD=Gray4   RatioNotC=Red   RatioVal1=0.5   RatioVal2=0.7 _
        RatioVal3=0.9   RatioVal4=1   DFillPos=Blue   DFillNeg=Red   DFillRPos=9498256   DFillRNeg=9498256
 
TABLE:  "DATABASE FORMAT TYPES"
   UnitsCurr=Yes   OverrideE=No
 
TABLE:  "PROJECT INFORMATION"
   Item="Company Name"
   Item="Client Name"
   Item="Project Name"
   Item="Project Number"
   Item="Model Name"
   Item="Model Description"
   Item="Revision Number"
   Item="Frame Type"
   Item=Engineer
   Item=Checker
   Item=Supervisor
   Item="Issue Code"
   Item="Design Code"
 
END TABLE DATA
